Program Version,EnergyPlus, Version 9.4.0-998c4b761e, YMD=2021.01.11 18:35
! <Version>, Version ID
 Version, 9.4
! <Timesteps per Hour>, #TimeSteps, Minutes per TimeStep {minutes}
 Timesteps per Hour,  4, 15
! <System Convergence Limits>, Minimum System TimeStep {minutes}, Max HVAC Iterations, Minimum Plant Iterations, Maximum Plant Iterations
 System Convergence Limits, 1, 20, 2, 8
! <Simulation Control>, Do Zone Sizing, Do System Sizing, Do Plant Sizing, Do Design Days, Do Weather Simulation, Do HVAC Sizing Simulation
 Simulation Control, Yes, Yes, Yes, No, Yes, No
! <Performance Precision Tradeoffs>, Use Coil Direct Simulation, Zone Radiant Exchange Algorithm, Override Mode, Number of Timestep In Hour, Force Euler Method, Minimum Number of Warmup Days, Force Suppress All Begin Environment Resets, Minimum System Timestep, MaxZoneTempDiff, MaxAllowedDelTemp
 Performance Precision Tradeoffs, No, ScriptF, Normal, 4, No, 1, No, 1.0, 0.300, 2.0000E-003
! <Output Reporting Tolerances>, Tolerance for Time Heating Setpoint Not Met, Tolerance for Zone Cooling Setpoint Not Met Time
 Output Reporting Tolerances, 0.556, 0.556, 
! <Site:GroundTemperature:BuildingSurface>,Jan{C},Feb{C},Mar{C},Apr{C},May{C},Jun{C},Jul{C},Aug{C},Sep{C},Oct{C},Nov{C},Dec{C}
 Site:GroundTemperature:BuildingSurface,  18.00,  18.00,  18.00,  18.00,  18.00,  18.00,  18.00,  18.00,  18.00,  18.00,  18.00,  18.00
! <Site:GroundTemperature:FCfactorMethod>,Jan{C},Feb{C},Mar{C},Apr{C},May{C},Jun{C},Jul{C},Aug{C},Sep{C},Oct{C},Nov{C},Dec{C}
 Site:GroundTemperature:FCfactorMethod,  18.80,  14.30,  13.60,  13.20,  13.30,  12.60,  15.30,  15.60,  17.70,  19.40,  19.70,  18.50
! <Site:GroundTemperature:Shallow>,Jan{C},Feb{C},Mar{C},Apr{C},May{C},Jun{C},Jul{C},Aug{C},Sep{C},Oct{C},Nov{C},Dec{C}
 Site:GroundTemperature:Shallow,  13.00,  13.00,  13.00,  13.00,  13.00,  13.00,  13.00,  13.00,  13.00,  13.00,  13.00,  13.00
! <Site:GroundTemperature:Deep>,Jan{C},Feb{C},Mar{C},Apr{C},May{C},Jun{C},Jul{C},Aug{C},Sep{C},Oct{C},Nov{C},Dec{C}
 Site:GroundTemperature:Deep,  16.00,  16.00,  16.00,  16.00,  16.00,  16.00,  16.00,  16.00,  16.00,  16.00,  16.00,  16.00
! <Site:GroundReflectance>,Jan{dimensionless},Feb{dimensionless},Mar{dimensionless},Apr{dimensionless},May{dimensionless},Jun{dimensionless},Jul{dimensionless},Aug{dimensionless},Sep{dimensionless},Oct{dimensionless},Nov{dimensionless},Dec{dimensionless}
 Site:GroundReflectance,  0.20,  0.20,  0.20,  0.20,  0.20,  0.20,  0.20,  0.20,  0.20,  0.20,  0.20,  0.20
! <Site:GroundReflectance:SnowModifier>, Normal, Daylighting {dimensionless}
 Site:GroundReflectance:SnowModifier,   1.000,   1.000
! <Site:GroundReflectance:Snow>,Jan{dimensionless},Feb{dimensionless},Mar{dimensionless},Apr{dimensionless},May{dimensionless},Jun{dimensionless},Jul{dimensionless},Aug{dimensionless},Sep{dimensionless},Oct{dimensionless},Nov{dimensionless},Dec{dimensionless}
 Site:GroundReflectance:Snow,  0.20,  0.20,  0.20,  0.20,  0.20,  0.20,  0.20,  0.20,  0.20,  0.20,  0.20,  0.20
! <Site:GroundReflectance:Snow:Daylighting>,Jan{dimensionless},Feb{dimensionless},Mar{dimensionless},Apr{dimensionless},May{dimensionless},Jun{dimensionless},Jul{dimensionless},Aug{dimensionless},Sep{dimensionless},Oct{dimensionless},Nov{dimensionless},Dec{dimensionless}
 Site:GroundReflectance:Snow:Daylighting,  0.20,  0.20,  0.20,  0.20,  0.20,  0.20,  0.20,  0.20,  0.20,  0.20,  0.20,  0.20
! <Environment:Weather Station>,Wind Sensor Height Above Ground {m},Wind Speed Profile Exponent {},Wind Speed Profile Boundary Layer Thickness {m},Air Temperature Sensor Height Above Ground {m},Wind Speed Modifier Coefficient-Internal,Temperature Modifier Coefficient-Internal
Environment:Weather Station,10.000,0.140,270.000,1.500,1.586,9.750E-003
! <Site:Location>, Location Name, Latitude {N+/S- Deg}, Longitude {E+/W- Deg},  Time Zone Number {GMT+/-}, Elevation {m},  Standard Pressure at Elevation {Pa}, Standard RhoAir at Elevation
Site:Location,San Diego-Brown Field Muni AP CA USA TMY3 WMO#=722904,32.58,-116.98,-8.00,159.00,99429,1.1818
! <Site Water Mains Temperature Information>,Calculation Method{},Water Mains Temperature Schedule Name{},Annual Average Outdoor Air Temperature{C},Maximum Difference In Monthly Average Outdoor Air Temperatures{deltaC},Fixed Default Water Mains Temperature{C}
Site Water Mains Temperature Information,Correlation,NA,16.00,7.10,NA
! <Building Information>, Building Name,North Axis {deg},Terrain,  Loads Convergence Tolerance Value,Temperature Convergence Tolerance Value,  Solar Distribution,Maximum Number of Warmup Days,Minimum Number of Warmup Days
 Building Information,OfficeSmall,0.000,City,4.00000E-002,0.20000,FullInteriorAndExterior,25,6
! <Inside Convection Algorithm>, Algorithm {Simple | TARP | CeilingDiffuser | AdaptiveConvectionAlgorithm}
Inside Convection Algorithm,TARP
! <Outside Convection Algorithm>, Algorithm {SimpleCombined | TARP | MoWitt | DOE-2 | AdaptiveConvectionAlgorithm}
Outside Convection Algorithm,TARP
! <Sky Radiance Distribution>, Value {Anisotropic}
Sky Radiance Distribution,Anisotropic
! <Zone Air Solution Algorithm>, Value {ThirdOrderBackwardDifference | AnalyticalSolution | EulerMethod}
 Zone Air Solution Algorithm, ThirdOrderBackwardDifference
! <Zone Air Carbon Dioxide Balance Simulation>, Simulation {Yes/No}, Carbon Dioxide Concentration
 Zone Air Carbon Dioxide Balance Simulation, No,N/A
! <Zone Air Generic Contaminant Balance Simulation>, Simulation {Yes/No}, Generic Contaminant Concentration
 Zone Air Generic Contaminant Balance Simulation, No,N/A
! <Zone Air Mass Flow Balance Simulation>, Enforce Mass Balance, Adjust Zone Mixing, Adjust Zone Infiltration {AddInfiltration | AdjustInfiltration | None}, Infiltration Zones {MixingSourceZonesOnly | AllZones}
 Zone Air Mass Flow Balance Simulation, No,N/A,N/A,N/A
! <HVACSystemRootFindingAlgorithm>, Value {RegulaFalsi | Bisection | BisectionThenRegulaFalsi | RegulaFalsiThenBisection}
 HVACSystemRootFindingAlgorithm, RegulaFalsi
! <Environment:Site Atmospheric Variation>,Wind Speed Profile Exponent {},Wind Speed Profile Boundary Layer Thickness {m},Air Temperature Gradient Coefficient {K/m}
Environment:Site Atmospheric Variation,0.330,460.000,6.500000E-003
! <Surface Geometry>,Starting Corner,Vertex Input Direction,Coordinate System,Daylight Reference Point Coordinate System,Rectangular (Simple) Surface Coordinate System
 Surface Geometry,UpperLeftCorner,Counterclockwise,RelativeCoordinateSystem,RelativeCoordinateSystem,RelativeToZoneOrigin
! <Surface Heat Transfer Algorithm>, Value {CTF - ConductionTransferFunction | EMPD - MoisturePenetrationDepthConductionTransferFunction | CondFD - ConductionFiniteDifference | HAMT - CombinedHeatAndMoistureFiniteElement} - Description,Inside Surface Max Temperature Limit{C}, Surface Convection Coefficient Lower Limit {W/m2-K}, Surface Convection Coefficient Upper Limit {W/m2-K}
Surface Heat Transfer Algorithm, CTF - ConductionTransferFunction,200,0.10,1000.0
! <Shading Summary>, Number of Fixed Detached Shades, Number of Building Detached Shades, Number of Attached Shades
 Shading Summary,0,0,0
! <Zone Summary>, Number of Zones, Number of Zone Surfaces, Number of SubSurfaces
 Zone Summary,6,71,23
! <Zone Information>,Zone Name,North Axis {deg},Origin X-Coordinate {m},Origin Y-Coordinate {m},Origin Z-Coordinate {m},Centroid X-Coordinate {m},Centroid Y-Coordinate {m},Centroid Z-Coordinate {m},Type,Zone Multiplier,Zone List Multiplier,Minimum X {m},Maximum X {m},Minimum Y {m},Maximum Y {m},Minimum Z {m},Maximum Z {m},Ceiling Height {m},Volume {m3},Zone Inside Convection Algorithm {Simple-Detailed-CeilingDiffuser-TrombeWall},Zone Outside Convection Algorithm {Simple-Detailed-Tarp-MoWitt-DOE-2-BLAST}, Floor Area {m2},Exterior Gross Wall Area {m2},Exterior Net Wall Area {m2},Exterior Window Area {m2}, Number of Surfaces, Number of SubSurfaces, Number of Shading SubSurfaces,  Part of Total Building Area
 Zone Information, CORE_ZN,0.0,0.00,0.00,0.00,13.85,9.23,1.53,1,1,1,5.00,22.69,5.00,13.46,0.00,3.05,3.05,456.46,TARP,TARP,149.66,0.00,0.00,0.00,6,0,0,Yes
 Zone Information, PERIMETER_ZN_1,0.0,0.00,0.00,0.00,13.85,2.21,1.53,1,1,1,0.00,27.69,0.00,5.00,0.00,3.05,3.05,346.02,TARP,TARP,113.45,84.45,63.82,20.64,6,7,0,Yes
 Zone Information, PERIMETER_ZN_2,0.0,0.00,0.00,0.00,25.64,9.23,1.53,1,1,1,22.69,27.69,0.00,18.46,0.00,3.05,3.05,205.27,TARP,TARP,67.30,56.30,45.15,11.16,6,4,0,Yes
 Zone Information, PERIMETER_ZN_3,0.0,0.00,0.00,0.00,13.85,16.25,1.53,1,1,1,0.00,27.69,13.46,18.46,0.00,3.05,3.05,346.02,TARP,TARP,113.45,84.45,63.82,16.73,6,8,0,Yes
 Zone Information, PERIMETER_ZN_4,0.0,0.00,0.00,0.00,2.05,9.23,1.53,1,1,1,0.00,5.00,0.00,18.46,0.00,3.05,3.05,205.27,TARP,TARP,67.30,56.30,45.15,11.16,6,4,0,Yes
 Zone Information, ATTIC,0.0,0.00,0.00,0.00,13.85,9.23,3.70,1,1,1,-0.60,28.29,-0.60,19.06,3.05,6.33,1.64,720.19,TARP,TARP,567.98,0.00,0.00,0.00,13,0,0,No
! <Zone Internal Gains Nominal>,Zone Name, Floor Area {m2},# Occupants,Area per Occupant {m2/person},Occupant per Area {person/m2},Interior Lighting {W/m2},Electric Load {W/m2},Gas Load {W/m2},Other Load {W/m2},Hot Water Eq {W/m2},Steam Equipment {W/m2},Sum Loads per Area {W/m2},Outdoor Controlled Baseboard Heat
 Zone Internal Gains Nominal, CORE_ZN,149.66,9.0,16.588,6.028E-002,6.889,6.780,0.000,0.000,0.000,0.000,13.669,No
 Zone Internal Gains Nominal, PERIMETER_ZN_1,113.45,6.8,16.588,6.028E-002,6.889,6.780,0.000,0.000,0.000,0.000,13.669,No
 Zone Internal Gains Nominal, PERIMETER_ZN_2,67.30,4.1,16.588,6.028E-002,6.889,6.780,0.000,0.000,0.000,0.000,13.669,No
 Zone Internal Gains Nominal, PERIMETER_ZN_3,113.45,6.8,16.588,6.028E-002,6.889,6.780,0.000,0.000,0.000,0.000,13.669,No
 Zone Internal Gains Nominal, PERIMETER_ZN_4,67.30,4.1,16.588,6.028E-002,6.889,6.780,0.000,0.000,0.000,0.000,13.669,No
 Zone Internal Gains Nominal, ATTIC,567.98,0.0,N/A,0.000,0.000,0.000,0.000,0.000,0.000,0.000,0.000,No
! <People Internal Gains Nominal>,Name,Schedule Name,Zone Name,Zone Floor Area {m2},# Zone Occupants,Number of People {},People/Floor Area {person/m2},Floor Area per person {m2/person},Fraction Radiant,Fraction Convected,Sensible Fraction Calculation,Activity level,ASHRAE 55 Warnings,Carbon Dioxide Generation Rate,Nominal Minimum Number of People,Nominal Maximum Number of People
 People Internal Gains Nominal, CORE_ZN,BLDG_OCC_SCH_WO_SB,CORE_ZN,149.66,9.0,9.0,6.028E-002,16.588,0.300,0.700,AutoCalculate,ACTIVITY_SCH,No,3.8200E-008,0,9
 People Internal Gains Nominal, PERIMETER_ZN_1,BLDG_OCC_SCH_WO_SB,PERIMETER_ZN_1,113.45,6.8,6.8,6.028E-002,16.588,0.300,0.700,AutoCalculate,ACTIVITY_SCH,No,3.8200E-008,0,7
 People Internal Gains Nominal, PERIMETER_ZN_2,BLDG_OCC_SCH_W_SB,PERIMETER_ZN_2,67.30,4.1,4.1,6.028E-002,16.588,0.300,0.700,AutoCalculate,ACTIVITY_SCH,No,3.8200E-008,0,4
 People Internal Gains Nominal, PERIMETER_ZN_3,BLDG_OCC_SCH_WO_SB,PERIMETER_ZN_3,113.45,6.8,6.8,6.028E-002,16.588,0.300,0.700,AutoCalculate,ACTIVITY_SCH,No,3.8200E-008,0,7
 People Internal Gains Nominal, PERIMETER_ZN_4,BLDG_OCC_SCH_WO_SB,PERIMETER_ZN_4,67.30,4.1,4.1,6.028E-002,16.588,0.300,0.700,AutoCalculate,ACTIVITY_SCH,No,3.8200E-008,0,4
! <Lights Internal Gains Nominal>,Name,Schedule Name,Zone Name,Zone Floor Area {m2},# Zone Occupants,Lighting Level {W},Lights/Floor Area {W/m2},Lights per person {W/person},Fraction Return Air,Fraction Radiant,Fraction Short Wave,Fraction Convected,Fraction Replaceable,End-Use Category,Nominal Minimum Lighting Level {W},Nominal Maximum Lighting Level {W}
 Lights Internal Gains Nominal, CORE_ZN_LIGHTS,BLDG_LIGHT_SCH,CORE_ZN,149.66,9.0,1030.975,6.889,114.274,0.000,0.700,0.200,0.100,1.000,LightsWired,0.000,1030.975
 Lights Internal Gains Nominal, PERIMETER_ZN_1_LIGHTS,BLDG_LIGHT_SCH,PERIMETER_ZN_1,113.45,6.8,781.546,6.889,114.274,0.000,0.700,0.200,0.100,1.000,LightsWired,0.000,781.546
 Lights Internal Gains Nominal, PERIMETER_ZN_2_LIGHTS,BLDG_LIGHT_SCH,PERIMETER_ZN_2,67.30,4.1,463.623,6.889,114.274,0.000,0.700,0.200,0.100,1.000,LightsWired,0.000,463.623
 Lights Internal Gains Nominal, PERIMETER_ZN_3_LIGHTS,BLDG_LIGHT_SCH,PERIMETER_ZN_3,113.45,6.8,781.546,6.889,114.274,0.000,0.700,0.200,0.100,1.000,LightsWired,0.000,781.546
 Lights Internal Gains Nominal, PERIMETER_ZN_4_LIGHTS,BLDG_LIGHT_SCH,PERIMETER_ZN_4,67.30,4.1,463.623,6.889,114.274,0.000,0.700,0.200,0.100,1.000,LightsWired,0.000,463.623
! <ElectricEquipment Internal Gains Nominal>,Name,Schedule Name,Zone Name,Zone Floor Area {m2},# Zone Occupants,Equipment Level {W},Equipment/Floor Area {W/m2},Equipment per person {W/person},Fraction Latent,Fraction Radiant,Fraction Lost,Fraction Convected,End-Use SubCategory,Nominal Minimum Equipment Level {W},Nominal Maximum Equipment Level {W}
 ElectricEquipment Internal Gains Nominal, CORE_ZN_MISCPLUG_EQUIP,BLDG_EQUIP_SCH,CORE_ZN,149.66,9.0,1014.677,6.780,112.467,0.000,0.000,0.000,1.000,MiscPlug,0.000,1014.677
 ElectricEquipment Internal Gains Nominal, PERIMETER_ZN_1_MISCPLUG_EQUIP,BLDG_EQUIP_SCH,PERIMETER_ZN_1,113.45,6.8,769.191,6.780,112.467,0.000,0.000,0.000,1.000,MiscPlug,0.000,769.191
 ElectricEquipment Internal Gains Nominal, PERIMETER_ZN_2_MISCPLUG_EQUIP,BLDG_EQUIP_SCH,PERIMETER_ZN_2,67.30,4.1,456.294,6.780,112.467,0.000,0.000,0.000,1.000,MiscPlug,0.000,456.294
 ElectricEquipment Internal Gains Nominal, PERIMETER_ZN_3_MISCPLUG_EQUIP,BLDG_EQUIP_SCH,PERIMETER_ZN_3,113.45,6.8,769.191,6.780,112.467,0.000,0.000,0.000,1.000,MiscPlug,0.000,769.191
 ElectricEquipment Internal Gains Nominal, PERIMETER_ZN_4_MISCPLUG_EQUIP,BLDG_EQUIP_SCH,PERIMETER_ZN_4,67.30,4.1,456.294,6.780,112.467,0.000,0.000,0.000,1.000,MiscPlug,0.000,456.294
! <Shadowing/Sun Position Calculations Annual Simulations>, Shading Calculation Method, Shading Calculation Update Frequency Method, Shading Calculation Update Frequency {days}, Maximum Figures in Shadow Overlap Calculations {}, Polygon Clipping Algorithm, Pixel Counting Resolution, Sky Diffuse Modeling Algorithm, Output External Shading Calculation Results, Disable Self-Shading Within Shading Zone Groups, Disable Self-Shading From Shading Zone Groups to Other Zones
Shadowing/Sun Position Calculations Annual Simulations,PolygonClipping,Periodic,30,15000,SutherlandHodgman,512,SimpleSkyDiffuseModeling,No,No,No
! <Zone/Window Adjacency Daylighting Counts>, Zone Name, Number of Exterior Windows, Number of Exterior Windows in Adjacent Zones
Zone/Window Adjacency Daylighting Counts, PERIMETER_ZN_1,7,0
Zone/Window Adjacency Daylighting Counts, PERIMETER_ZN_2,4,0
Zone/Window Adjacency Daylighting Counts, PERIMETER_ZN_3,6,0
Zone/Window Adjacency Daylighting Counts, PERIMETER_ZN_4,4,0
! <Zone/Window Adjacency Daylighting Matrix>, Zone Name, Number of Adjacent Zones with Windows,Adjacent Zone Names - 1st 100 (max)
Zone/Window Adjacency Daylighting Matrix, PERIMETER_ZN_1,0
Zone/Window Adjacency Daylighting Matrix, PERIMETER_ZN_2,0
Zone/Window Adjacency Daylighting Matrix, PERIMETER_ZN_3,0
Zone/Window Adjacency Daylighting Matrix, PERIMETER_ZN_4,0
! <Water Heater Information>,Type,Name,Volume {m3},Maximum Capacity {W},Standard Rated Recovery Efficiency, Standard Rated Energy Factor
! <ZoneInfiltration Airflow Stats Nominal>,Name,Schedule Name,Zone Name, Zone Floor Area {m2}, # Zone Occupants,Design Volume Flow Rate {m3/s},Volume Flow Rate/Floor Area {m3/s-m2},Volume Flow Rate/Exterior Surface Area {m3/s-m2},ACH - Air Changes per Hour,Equation A - Constant Term Coefficient {},Equation B - Temperature Term Coefficient {1/C},Equation C - Velocity Term Coefficient {s/m}, Equation D - Velocity Squared Term Coefficient {s2/m2}
 ZoneInfiltration Airflow Stats Nominal, PERIMETER_ZN_1_INFILTRATION,INFIL_QUARTER_ON_SCH,PERIMETER_ZN_1,113.45,6.8,4.805E-002,4.235E-004,5.690E-004,0.500,0.000,0.000,0.224,0.000
 ZoneInfiltration Airflow Stats Nominal, PERIMETER_ZN_1_DOOR_INFILTRATION,INFIL_DOOR_OPENING_SCH,PERIMETER_ZN_1,113.45,6.8,0.130,1.144E-003,1.537E-003,1.350,1.000,0.000,0.000,0.000
 ZoneInfiltration Airflow Stats Nominal, PERIMETER_ZN_2_INFILTRATION,INFIL_QUARTER_ON_SCH,PERIMETER_ZN_2,67.30,4.1,3.203E-002,4.760E-004,5.690E-004,0.562,0.000,0.000,0.224,0.000
 ZoneInfiltration Airflow Stats Nominal, PERIMETER_ZN_3_INFILTRATION,INFIL_QUARTER_ON_SCH,PERIMETER_ZN_3,113.45,6.8,4.805E-002,4.235E-004,5.438E-004,0.500,0.000,0.000,0.224,0.000
 ZoneInfiltration Airflow Stats Nominal, PERIMETER_ZN_4_INFILTRATION,INFIL_QUARTER_ON_SCH,PERIMETER_ZN_4,67.30,4.1,3.203E-002,4.760E-004,5.690E-004,0.562,0.000,0.000,0.224,0.000
 ZoneInfiltration Airflow Stats Nominal, ATTIC_INFILTRATION,ALWAYS_ON,ATTIC,567.98,0.0,0.200,3.523E-004,3.052E-004,1.000,1.000,0.000,0.000,0.000
! <AirFlow Model>, Simple
 AirFlow Model, Simple
! <RoomAir Model>, Zone Name, Mixing/Mundt/UCSDDV/UCSDCV/UCSDUFI/UCSDUFE/User Defined
RoomAir Model,CORE_ZN,Mixing/Well-Stirred
RoomAir Model,PERIMETER_ZN_1,Mixing/Well-Stirred
RoomAir Model,PERIMETER_ZN_2,Mixing/Well-Stirred
RoomAir Model,PERIMETER_ZN_3,Mixing/Well-Stirred
RoomAir Model,PERIMETER_ZN_4,Mixing/Well-Stirred
RoomAir Model,ATTIC,Mixing/Well-Stirred
! <AirflowNetwork Model:Control>, No Multizone or Distribution/Multizone with Distribution/Multizone without Distribution/Multizone with Distribution only during Fan Operation
AirflowNetwork Model:Control,NoMultizoneOrDistribution
! <Zone Volume Capacitance Multiplier>, Sensible Heat Capacity Multiplier, Moisture Capacity Multiplier, Carbon Dioxide Capacity Multiplier, Generic Contaminant Capacity Multiplier
Zone Volume Capacitance Multiplier,   1.000 ,   1.000,   1.000,   1.000
! <Load Timesteps in Zone Design Calculation Averaging Window>, Value
 Load Timesteps in Zone Design Calculation Averaging Window,    6
! <Heating Sizing Factor Information>, Sizing Factor ID, Value
 Heating Sizing Factor Information, Global,   1.2000    
 Heating Sizing Factor Information, Zone CORE_ZN,   1.2000    
 Heating Sizing Factor Information, Zone PERIMETER_ZN_1,   1.2000    
 Heating Sizing Factor Information, Zone PERIMETER_ZN_2,   1.2000    
 Heating Sizing Factor Information, Zone PERIMETER_ZN_3,   1.2000    
 Heating Sizing Factor Information, Zone PERIMETER_ZN_4,   1.2000    
! <Cooling Sizing Factor Information>, Sizing Factor ID, Value
 Cooling Sizing Factor Information, Global,   1.2000    
 Cooling Sizing Factor Information, Zone CORE_ZN,   1.2000    
 Cooling Sizing Factor Information, Zone PERIMETER_ZN_1,   1.2000    
 Cooling Sizing Factor Information, Zone PERIMETER_ZN_2,   1.2000    
 Cooling Sizing Factor Information, Zone PERIMETER_ZN_3,   1.2000    
 Cooling Sizing Factor Information, Zone PERIMETER_ZN_4,   1.2000    
! <Sky Daylight Factors>, MonthAndDay, Zone Name, Window Name, Reference Point, Daylight Factor
 Sky Daylight Factors,Clear Sky,12/21,PERIMETER_ZN_1,PERIMETER_ZN_1_WALL_SOUTH_WINDOW_1,PERIMETER_ZN_1_DAYLREFPT1,1.2391E-003
 Sky Daylight Factors,Clear Sky,12/21,PERIMETER_ZN_1,PERIMETER_ZN_1_WALL_SOUTH_WINDOW_1,PERIMETER_ZN_1_DAYLREFPT2,1.3984E-003
 Sky Daylight Factors,Clear Turbid Sky,12/21,PERIMETER_ZN_1,PERIMETER_ZN_1_WALL_SOUTH_WINDOW_1,PERIMETER_ZN_1_DAYLREFPT1,1.3333E-003
 Sky Daylight Factors,Clear Turbid Sky,12/21,PERIMETER_ZN_1,PERIMETER_ZN_1_WALL_SOUTH_WINDOW_1,PERIMETER_ZN_1_DAYLREFPT2,1.4802E-003
 Sky Daylight Factors,Intermediate Sky,12/21,PERIMETER_ZN_1,PERIMETER_ZN_1_WALL_SOUTH_WINDOW_1,PERIMETER_ZN_1_DAYLREFPT1,8.9787E-004
 Sky Daylight Factors,Intermediate Sky,12/21,PERIMETER_ZN_1,PERIMETER_ZN_1_WALL_SOUTH_WINDOW_1,PERIMETER_ZN_1_DAYLREFPT2,1.0130E-003
 Sky Daylight Factors,Overcast Sky,12/21,PERIMETER_ZN_1,PERIMETER_ZN_1_WALL_SOUTH_WINDOW_1,PERIMETER_ZN_1_DAYLREFPT1,4.3445E-004
 Sky Daylight Factors,Overcast Sky,12/21,PERIMETER_ZN_1,PERIMETER_ZN_1_WALL_SOUTH_WINDOW_1,PERIMETER_ZN_1_DAYLREFPT2,4.8532E-004
 Sky Daylight Factors,Clear Sky,12/21,PERIMETER_ZN_1,PERIMETER_ZN_1_WALL_SOUTH_WINDOW_2,PERIMETER_ZN_1_DAYLREFPT1,8.6219E-003
 Sky Daylight Factors,Clear Sky,12/21,PERIMETER_ZN_1,PERIMETER_ZN_1_WALL_SOUTH_WINDOW_2,PERIMETER_ZN_1_DAYLREFPT2,7.8759E-003
 Sky Daylight Factors,Clear Turbid Sky,12/21,PERIMETER_ZN_1,PERIMETER_ZN_1_WALL_SOUTH_WINDOW_2,PERIMETER_ZN_1_DAYLREFPT1,8.7953E-003
 Sky Daylight Factors,Clear Turbid Sky,12/21,PERIMETER_ZN_1,PERIMETER_ZN_1_WALL_SOUTH_WINDOW_2,PERIMETER_ZN_1_DAYLREFPT2,8.4466E-003
 Sky Daylight Factors,Intermediate Sky,12/21,PERIMETER_ZN_1,PERIMETER_ZN_1_WALL_SOUTH_WINDOW_2,PERIMETER_ZN_1_DAYLREFPT1,7.7992E-003
 Sky Daylight Factors,Intermediate Sky,12/21,PERIMETER_ZN_1,PERIMETER_ZN_1_WALL_SOUTH_WINDOW_2,PERIMETER_ZN_1_DAYLREFPT2,5.3048E-003
 Sky Daylight Factors,Overcast Sky,12/21,PERIMETER_ZN_1,PERIMETER_ZN_1_WALL_SOUTH_WINDOW_2,PERIMETER_ZN_1_DAYLREFPT1,3.7083E-003
 Sky Daylight Factors,Overcast Sky,12/21,PERIMETER_ZN_1,PERIMETER_ZN_1_WALL_SOUTH_WINDOW_2,PERIMETER_ZN_1_DAYLREFPT2,1.9958E-003
 Sky Daylight Factors,Clear Sky,12/21,PERIMETER_ZN_1,PERIMETER_ZN_1_WALL_SOUTH_WINDOW_3,PERIMETER_ZN_1_DAYLREFPT1,6.0738E-003
 Sky Daylight Factors,Clear Sky,12/21,PERIMETER_ZN_1,PERIMETER_ZN_1_WALL_SOUTH_WINDOW_3,PERIMETER_ZN_1_DAYLREFPT2,5.9869E-003
 Sky Daylight Factors,Clear Turbid Sky,12/21,PERIMETER_ZN_1,PERIMETER_ZN_1_WALL_SOUTH_WINDOW_3,PERIMETER_ZN_1_DAYLREFPT1,5.9661E-003
 Sky Daylight Factors,Clear Turbid Sky,12/21,PERIMETER_ZN_1,PERIMETER_ZN_1_WALL_SOUTH_WINDOW_3,PERIMETER_ZN_1_DAYLREFPT2,6.1940E-003
 Sky Daylight Factors,Intermediate Sky,12/21,PERIMETER_ZN_1,PERIMETER_ZN_1_WALL_SOUTH_WINDOW_3,PERIMETER_ZN_1_DAYLREFPT1,5.7987E-003
 Sky Daylight Factors,Intermediate Sky,12/21,PERIMETER_ZN_1,PERIMETER_ZN_1_WALL_SOUTH_WINDOW_3,PERIMETER_ZN_1_DAYLREFPT2,4.4453E-003
 Sky Daylight Factors,Overcast Sky,12/21,PERIMETER_ZN_1,PERIMETER_ZN_1_WALL_SOUTH_WINDOW_3,PERIMETER_ZN_1_DAYLREFPT1,3.0809E-003
 Sky Daylight Factors,Overcast Sky,12/21,PERIMETER_ZN_1,PERIMETER_ZN_1_WALL_SOUTH_WINDOW_3,PERIMETER_ZN_1_DAYLREFPT2,1.8451E-003
 Sky Daylight Factors,Clear Sky,12/21,PERIMETER_ZN_1,PERIMETER_ZN_1_WALL_SOUTH_WINDOW_4,PERIMETER_ZN_1_DAYLREFPT1,1.2264E-003
 Sky Daylight Factors,Clear Sky,12/21,PERIMETER_ZN_1,PERIMETER_ZN_1_WALL_SOUTH_WINDOW_4,PERIMETER_ZN_1_DAYLREFPT2,1.3531E-003
 Sky Daylight Factors,Clear Turbid Sky,12/21,PERIMETER_ZN_1,PERIMETER_ZN_1_WALL_SOUTH_WINDOW_4,PERIMETER_ZN_1_DAYLREFPT1,1.3211E-003
 Sky Daylight Factors,Clear Turbid Sky,12/21,PERIMETER_ZN_1,PERIMETER_ZN_1_WALL_SOUTH_WINDOW_4,PERIMETER_ZN_1_DAYLREFPT2,1.4340E-003
 Sky Daylight Factors,Intermediate Sky,12/21,PERIMETER_ZN_1,PERIMETER_ZN_1_WALL_SOUTH_WINDOW_4,PERIMETER_ZN_1_DAYLREFPT1,8.8707E-004
 Sky Daylight Factors,Intermediate Sky,12/21,PERIMETER_ZN_1,PERIMETER_ZN_1_WALL_SOUTH_WINDOW_4,PERIMETER_ZN_1_DAYLREFPT2,9.8181E-004
 Sky Daylight Factors,Overcast Sky,12/21,PERIMETER_ZN_1,PERIMETER_ZN_1_WALL_SOUTH_WINDOW_4,PERIMETER_ZN_1_DAYLREFPT1,4.3086E-004
 Sky Daylight Factors,Overcast Sky,12/21,PERIMETER_ZN_1,PERIMETER_ZN_1_WALL_SOUTH_WINDOW_4,PERIMETER_ZN_1_DAYLREFPT2,4.7744E-004
 Sky Daylight Factors,Clear Sky,12/21,PERIMETER_ZN_1,PERIMETER_ZN_1_WALL_SOUTH_WINDOW_5,PERIMETER_ZN_1_DAYLREFPT1,1.1759E-003
 Sky Daylight Factors,Clear Sky,12/21,PERIMETER_ZN_1,PERIMETER_ZN_1_WALL_SOUTH_WINDOW_5,PERIMETER_ZN_1_DAYLREFPT2,1.1900E-003
 Sky Daylight Factors,Clear Turbid Sky,12/21,PERIMETER_ZN_1,PERIMETER_ZN_1_WALL_SOUTH_WINDOW_5,PERIMETER_ZN_1_DAYLREFPT1,1.2782E-003
 Sky Daylight Factors,Clear Turbid Sky,12/21,PERIMETER_ZN_1,PERIMETER_ZN_1_WALL_SOUTH_WINDOW_5,PERIMETER_ZN_1_DAYLREFPT2,1.2902E-003
 Sky Daylight Factors,Intermediate Sky,12/21,PERIMETER_ZN_1,PERIMETER_ZN_1_WALL_SOUTH_WINDOW_5,PERIMETER_ZN_1_DAYLREFPT1,8.4769E-004
 Sky Daylight Factors,Intermediate Sky,12/21,PERIMETER_ZN_1,PERIMETER_ZN_1_WALL_SOUTH_WINDOW_5,PERIMETER_ZN_1_DAYLREFPT2,8.5744E-004
 Sky Daylight Factors,Overcast Sky,12/21,PERIMETER_ZN_1,PERIMETER_ZN_1_WALL_SOUTH_WINDOW_5,PERIMETER_ZN_1_DAYLREFPT1,4.0612E-004
 Sky Daylight Factors,Overcast Sky,12/21,PERIMETER_ZN_1,PERIMETER_ZN_1_WALL_SOUTH_WINDOW_5,PERIMETER_ZN_1_DAYLREFPT2,4.1152E-004
 Sky Daylight Factors,Clear Sky,12/21,PERIMETER_ZN_1,PERIMETER_ZN_1_WALL_SOUTH_WINDOW_6,PERIMETER_ZN_1_DAYLREFPT1,1.1721E-003
 Sky Daylight Factors,Clear Sky,12/21,PERIMETER_ZN_1,PERIMETER_ZN_1_WALL_SOUTH_WINDOW_6,PERIMETER_ZN_1_DAYLREFPT2,1.1749E-003
 Sky Daylight Factors,Clear Turbid Sky,12/21,PERIMETER_ZN_1,PERIMETER_ZN_1_WALL_SOUTH_WINDOW_6,PERIMETER_ZN_1_DAYLREFPT1,1.2751E-003
 Sky Daylight Factors,Clear Turbid Sky,12/21,PERIMETER_ZN_1,PERIMETER_ZN_1_WALL_SOUTH_WINDOW_6,PERIMETER_ZN_1_DAYLREFPT2,1.2774E-003
 Sky Daylight Factors,Intermediate Sky,12/21,PERIMETER_ZN_1,PERIMETER_ZN_1_WALL_SOUTH_WINDOW_6,PERIMETER_ZN_1_DAYLREFPT1,8.4513E-004
 Sky Daylight Factors,Intermediate Sky,12/21,PERIMETER_ZN_1,PERIMETER_ZN_1_WALL_SOUTH_WINDOW_6,PERIMETER_ZN_1_DAYLREFPT2,8.4696E-004
 Sky Daylight Factors,Overcast Sky,12/21,PERIMETER_ZN_1,PERIMETER_ZN_1_WALL_SOUTH_WINDOW_6,PERIMETER_ZN_1_DAYLREFPT1,4.0450E-004
 Sky Daylight Factors,Overcast Sky,12/21,PERIMETER_ZN_1,PERIMETER_ZN_1_WALL_SOUTH_WINDOW_6,PERIMETER_ZN_1_DAYLREFPT2,4.0555E-004
 Sky Daylight Factors,Clear Sky,12/21,PERIMETER_ZN_1,PERIMETER_ZN_1_WALL_SOUTH_DOOR,PERIMETER_ZN_1_DAYLREFPT1,1.8426E-003
 Sky Daylight Factors,Clear Sky,12/21,PERIMETER_ZN_1,PERIMETER_ZN_1_WALL_SOUTH_DOOR,PERIMETER_ZN_1_DAYLREFPT2,2.1758E-003
 Sky Daylight Factors,Clear Turbid Sky,12/21,PERIMETER_ZN_1,PERIMETER_ZN_1_WALL_SOUTH_DOOR,PERIMETER_ZN_1_DAYLREFPT1,1.9452E-003
 Sky Daylight Factors,Clear Turbid Sky,12/21,PERIMETER_ZN_1,PERIMETER_ZN_1_WALL_SOUTH_DOOR,PERIMETER_ZN_1_DAYLREFPT2,2.2624E-003
 Sky Daylight Factors,Intermediate Sky,12/21,PERIMETER_ZN_1,PERIMETER_ZN_1_WALL_SOUTH_DOOR,PERIMETER_ZN_1_DAYLREFPT1,1.3641E-003
 Sky Daylight Factors,Intermediate Sky,12/21,PERIMETER_ZN_1,PERIMETER_ZN_1_WALL_SOUTH_DOOR,PERIMETER_ZN_1_DAYLREFPT2,1.5941E-003
 Sky Daylight Factors,Overcast Sky,12/21,PERIMETER_ZN_1,PERIMETER_ZN_1_WALL_SOUTH_DOOR,PERIMETER_ZN_1_DAYLREFPT1,6.8872E-004
 Sky Daylight Factors,Overcast Sky,12/21,PERIMETER_ZN_1,PERIMETER_ZN_1_WALL_SOUTH_DOOR,PERIMETER_ZN_1_DAYLREFPT2,7.7215E-004
 Sky Daylight Factors,Clear Sky,12/21,PERIMETER_ZN_2,PERIMETER_ZN_2_WALL_EAST_WINDOW_4,PERIMETER_ZN_2_DAYLREFPT1,8.7635E-004
 Sky Daylight Factors,Clear Sky,12/21,PERIMETER_ZN_2,PERIMETER_ZN_2_WALL_EAST_WINDOW_4,PERIMETER_ZN_2_DAYLREFPT2,9.8282E-004
 Sky Daylight Factors,Clear Turbid Sky,12/21,PERIMETER_ZN_2,PERIMETER_ZN_2_WALL_EAST_WINDOW_4,PERIMETER_ZN_2_DAYLREFPT1,7.8357E-004
 Sky Daylight Factors,Clear Turbid Sky,12/21,PERIMETER_ZN_2,PERIMETER_ZN_2_WALL_EAST_WINDOW_4,PERIMETER_ZN_2_DAYLREFPT2,8.6139E-004
 Sky Daylight Factors,Intermediate Sky,12/21,PERIMETER_ZN_2,PERIMETER_ZN_2_WALL_EAST_WINDOW_4,PERIMETER_ZN_2_DAYLREFPT1,7.5358E-004
 Sky Daylight Factors,Intermediate Sky,12/21,PERIMETER_ZN_2,PERIMETER_ZN_2_WALL_EAST_WINDOW_4,PERIMETER_ZN_2_DAYLREFPT2,7.8785E-004
 Sky Daylight Factors,Overcast Sky,12/21,PERIMETER_ZN_2,PERIMETER_ZN_2_WALL_EAST_WINDOW_4,PERIMETER_ZN_2_DAYLREFPT1,6.8112E-004
 Sky Daylight Factors,Overcast Sky,12/21,PERIMETER_ZN_2,PERIMETER_ZN_2_WALL_EAST_WINDOW_4,PERIMETER_ZN_2_DAYLREFPT2,7.2799E-004
 Sky Daylight Factors,Clear Sky,12/21,PERIMETER_ZN_2,PERIMETER_ZN_2_WALL_EAST_WINDOW_3,PERIMETER_ZN_2_DAYLREFPT1,3.6438E-003
 Sky Daylight Factors,Clear Sky,12/21,PERIMETER_ZN_2,PERIMETER_ZN_2_WALL_EAST_WINDOW_3,PERIMETER_ZN_2_DAYLREFPT2,2.8346E-003
 Sky Daylight Factors,Clear Turbid Sky,12/21,PERIMETER_ZN_2,PERIMETER_ZN_2_WALL_EAST_WINDOW_3,PERIMETER_ZN_2_DAYLREFPT1,2.8784E-003
 Sky Daylight Factors,Clear Turbid Sky,12/21,PERIMETER_ZN_2,PERIMETER_ZN_2_WALL_EAST_WINDOW_3,PERIMETER_ZN_2_DAYLREFPT2,2.2908E-003
 Sky Daylight Factors,Intermediate Sky,12/21,PERIMETER_ZN_2,PERIMETER_ZN_2_WALL_EAST_WINDOW_3,PERIMETER_ZN_2_DAYLREFPT1,2.4547E-003
 Sky Daylight Factors,Intermediate Sky,12/21,PERIMETER_ZN_2,PERIMETER_ZN_2_WALL_EAST_WINDOW_3,PERIMETER_ZN_2_DAYLREFPT2,1.9459E-003
 Sky Daylight Factors,Overcast Sky,12/21,PERIMETER_ZN_2,PERIMETER_ZN_2_WALL_EAST_WINDOW_3,PERIMETER_ZN_2_DAYLREFPT1,3.3354E-003
 Sky Daylight Factors,Overcast Sky,12/21,PERIMETER_ZN_2,PERIMETER_ZN_2_WALL_EAST_WINDOW_3,PERIMETER_ZN_2_DAYLREFPT2,2.1210E-003
 Sky Daylight Factors,Clear Sky,12/21,PERIMETER_ZN_2,PERIMETER_ZN_2_WALL_EAST_WINDOW_2,PERIMETER_ZN_2_DAYLREFPT1,8.3603E-003
 Sky Daylight Factors,Clear Sky,12/21,PERIMETER_ZN_2,PERIMETER_ZN_2_WALL_EAST_WINDOW_2,PERIMETER_ZN_2_DAYLREFPT2,4.1162E-003
 Sky Daylight Factors,Clear Turbid Sky,12/21,PERIMETER_ZN_2,PERIMETER_ZN_2_WALL_EAST_WINDOW_2,PERIMETER_ZN_2_DAYLREFPT1,8.3675E-003
 Sky Daylight Factors,Clear Turbid Sky,12/21,PERIMETER_ZN_2,PERIMETER_ZN_2_WALL_EAST_WINDOW_2,PERIMETER_ZN_2_DAYLREFPT2,3.7703E-003
 Sky Daylight Factors,Intermediate Sky,12/21,PERIMETER_ZN_2,PERIMETER_ZN_2_WALL_EAST_WINDOW_2,PERIMETER_ZN_2_DAYLREFPT1,7.7086E-003
 Sky Daylight Factors,Intermediate Sky,12/21,PERIMETER_ZN_2,PERIMETER_ZN_2_WALL_EAST_WINDOW_2,PERIMETER_ZN_2_DAYLREFPT2,3.7339E-003
 Sky Daylight Factors,Overcast Sky,12/21,PERIMETER_ZN_2,PERIMETER_ZN_2_WALL_EAST_WINDOW_2,PERIMETER_ZN_2_DAYLREFPT1,3.9763E-003
 Sky Daylight Factors,Overcast Sky,12/21,PERIMETER_ZN_2,PERIMETER_ZN_2_WALL_EAST_WINDOW_2,PERIMETER_ZN_2_DAYLREFPT2,2.2764E-003
 Sky Daylight Factors,Clear Sky,12/21,PERIMETER_ZN_2,PERIMETER_ZN_2_WALL_EAST_WINDOW_1,PERIMETER_ZN_2_DAYLREFPT1,1.0014E-003
 Sky Daylight Factors,Clear Sky,12/21,PERIMETER_ZN_2,PERIMETER_ZN_2_WALL_EAST_WINDOW_1,PERIMETER_ZN_2_DAYLREFPT2,1.2242E-003
 Sky Daylight Factors,Clear Turbid Sky,12/21,PERIMETER_ZN_2,PERIMETER_ZN_2_WALL_EAST_WINDOW_1,PERIMETER_ZN_2_DAYLREFPT1,9.3875E-004
 Sky Daylight Factors,Clear Turbid Sky,12/21,PERIMETER_ZN_2,PERIMETER_ZN_2_WALL_EAST_WINDOW_1,PERIMETER_ZN_2_DAYLREFPT2,1.1594E-003
 Sky Daylight Factors,Intermediate Sky,12/21,PERIMETER_ZN_2,PERIMETER_ZN_2_WALL_EAST_WINDOW_1,PERIMETER_ZN_2_DAYLREFPT1,8.3079E-004
 Sky Daylight Factors,Intermediate Sky,12/21,PERIMETER_ZN_2,PERIMETER_ZN_2_WALL_EAST_WINDOW_1,PERIMETER_ZN_2_DAYLREFPT2,9.7103E-004
 Sky Daylight Factors,Overcast Sky,12/21,PERIMETER_ZN_2,PERIMETER_ZN_2_WALL_EAST_WINDOW_1,PERIMETER_ZN_2_DAYLREFPT1,6.8458E-004
 Sky Daylight Factors,Overcast Sky,12/21,PERIMETER_ZN_2,PERIMETER_ZN_2_WALL_EAST_WINDOW_1,PERIMETER_ZN_2_DAYLREFPT2,7.3583E-004
 Sky Daylight Factors,Clear Sky,12/21,PERIMETER_ZN_3,PERIMETER_ZN_3_WALL_NORTH_WINDOW_1,PERIMETER_ZN_3_DAYLREFPT1,4.6549E-004
 Sky Daylight Factors,Clear Sky,12/21,PERIMETER_ZN_3,PERIMETER_ZN_3_WALL_NORTH_WINDOW_1,PERIMETER_ZN_3_DAYLREFPT2,5.5594E-004
 Sky Daylight Factors,Clear Turbid Sky,12/21,PERIMETER_ZN_3,PERIMETER_ZN_3_WALL_NORTH_WINDOW_1,PERIMETER_ZN_3_DAYLREFPT1,3.7440E-004
 Sky Daylight Factors,Clear Turbid Sky,12/21,PERIMETER_ZN_3,PERIMETER_ZN_3_WALL_NORTH_WINDOW_1,PERIMETER_ZN_3_DAYLREFPT2,4.4344E-004
 Sky Daylight Factors,Intermediate Sky,12/21,PERIMETER_ZN_3,PERIMETER_ZN_3_WALL_NORTH_WINDOW_1,PERIMETER_ZN_3_DAYLREFPT1,3.0940E-004
 Sky Daylight Factors,Intermediate Sky,12/21,PERIMETER_ZN_3,PERIMETER_ZN_3_WALL_NORTH_WINDOW_1,PERIMETER_ZN_3_DAYLREFPT2,3.5144E-004
 Sky Daylight Factors,Overcast Sky,12/21,PERIMETER_ZN_3,PERIMETER_ZN_3_WALL_NORTH_WINDOW_1,PERIMETER_ZN_3_DAYLREFPT1,4.2984E-004
 Sky Daylight Factors,Overcast Sky,12/21,PERIMETER_ZN_3,PERIMETER_ZN_3_WALL_NORTH_WINDOW_1,PERIMETER_ZN_3_DAYLREFPT2,4.7437E-004
 Sky Daylight Factors,Clear Sky,12/21,PERIMETER_ZN_3,PERIMETER_ZN_3_WALL_NORTH_WINDOW_2,PERIMETER_ZN_3_DAYLREFPT1,2.9219E-003
 Sky Daylight Factors,Clear Sky,12/21,PERIMETER_ZN_3,PERIMETER_ZN_3_WALL_NORTH_WINDOW_2,PERIMETER_ZN_3_DAYLREFPT2,2.4410E-003
 Sky Daylight Factors,Clear Turbid Sky,12/21,PERIMETER_ZN_3,PERIMETER_ZN_3_WALL_NORTH_WINDOW_2,PERIMETER_ZN_3_DAYLREFPT1,2.2712E-003
 Sky Daylight Factors,Clear Turbid Sky,12/21,PERIMETER_ZN_3,PERIMETER_ZN_3_WALL_NORTH_WINDOW_2,PERIMETER_ZN_3_DAYLREFPT2,1.8443E-003
 Sky Daylight Factors,Intermediate Sky,12/21,PERIMETER_ZN_3,PERIMETER_ZN_3_WALL_NORTH_WINDOW_2,PERIMETER_ZN_3_DAYLREFPT1,2.0473E-003
 Sky Daylight Factors,Intermediate Sky,12/21,PERIMETER_ZN_3,PERIMETER_ZN_3_WALL_NORTH_WINDOW_2,PERIMETER_ZN_3_DAYLREFPT2,1.2209E-003
 Sky Daylight Factors,Overcast Sky,12/21,PERIMETER_ZN_3,PERIMETER_ZN_3_WALL_NORTH_WINDOW_2,PERIMETER_ZN_3_DAYLREFPT1,2.8124E-003
 Sky Daylight Factors,Overcast Sky,12/21,PERIMETER_ZN_3,PERIMETER_ZN_3_WALL_NORTH_WINDOW_2,PERIMETER_ZN_3_DAYLREFPT2,1.7739E-003
 Sky Daylight Factors,Clear Sky,12/21,PERIMETER_ZN_3,PERIMETER_ZN_3_WALL_NORTH_WINDOW_3,PERIMETER_ZN_3_DAYLREFPT1,3.9528E-003
 Sky Daylight Factors,Clear Sky,12/21,PERIMETER_ZN_3,PERIMETER_ZN_3_WALL_NORTH_WINDOW_3,PERIMETER_ZN_3_DAYLREFPT2,2.7774E-003
 Sky Daylight Factors,Clear Turbid Sky,12/21,PERIMETER_ZN_3,PERIMETER_ZN_3_WALL_NORTH_WINDOW_3,PERIMETER_ZN_3_DAYLREFPT1,3.0904E-003
 Sky Daylight Factors,Clear Turbid Sky,12/21,PERIMETER_ZN_3,PERIMETER_ZN_3_WALL_NORTH_WINDOW_3,PERIMETER_ZN_3_DAYLREFPT2,2.1059E-003
 Sky Daylight Factors,Intermediate Sky,12/21,PERIMETER_ZN_3,PERIMETER_ZN_3_WALL_NORTH_WINDOW_3,PERIMETER_ZN_3_DAYLREFPT1,2.9950E-003
 Sky Daylight Factors,Intermediate Sky,12/21,PERIMETER_ZN_3,PERIMETER_ZN_3_WALL_NORTH_WINDOW_3,PERIMETER_ZN_3_DAYLREFPT2,1.4549E-003
 Sky Daylight Factors,Overcast Sky,12/21,PERIMETER_ZN_3,PERIMETER_ZN_3_WALL_NORTH_WINDOW_3,PERIMETER_ZN_3_DAYLREFPT1,4.0706E-003
 Sky Daylight Factors,Overcast Sky,12/21,PERIMETER_ZN_3,PERIMETER_ZN_3_WALL_NORTH_WINDOW_3,PERIMETER_ZN_3_DAYLREFPT2,2.0750E-003
 Sky Daylight Factors,Clear Sky,12/21,PERIMETER_ZN_3,PERIMETER_ZN_3_WALL_NORTH_WINDOW_4,PERIMETER_ZN_3_DAYLREFPT1,4.7794E-004
 Sky Daylight Factors,Clear Sky,12/21,PERIMETER_ZN_3,PERIMETER_ZN_3_WALL_NORTH_WINDOW_4,PERIMETER_ZN_3_DAYLREFPT2,5.8187E-004
 Sky Daylight Factors,Clear Turbid Sky,12/21,PERIMETER_ZN_3,PERIMETER_ZN_3_WALL_NORTH_WINDOW_4,PERIMETER_ZN_3_DAYLREFPT1,3.8507E-004
 Sky Daylight Factors,Clear Turbid Sky,12/21,PERIMETER_ZN_3,PERIMETER_ZN_3_WALL_NORTH_WINDOW_4,PERIMETER_ZN_3_DAYLREFPT2,4.6535E-004
 Sky Daylight Factors,Intermediate Sky,12/21,PERIMETER_ZN_3,PERIMETER_ZN_3_WALL_NORTH_WINDOW_4,PERIMETER_ZN_3_DAYLREFPT1,3.2078E-004
 Sky Daylight Factors,Intermediate Sky,12/21,PERIMETER_ZN_3,PERIMETER_ZN_3_WALL_NORTH_WINDOW_4,PERIMETER_ZN_3_DAYLREFPT2,3.7407E-004
 Sky Daylight Factors,Overcast Sky,12/21,PERIMETER_ZN_3,PERIMETER_ZN_3_WALL_NORTH_WINDOW_4,PERIMETER_ZN_3_DAYLREFPT1,4.3704E-004
 Sky Daylight Factors,Overcast Sky,12/21,PERIMETER_ZN_3,PERIMETER_ZN_3_WALL_NORTH_WINDOW_4,PERIMETER_ZN_3_DAYLREFPT2,4.9016E-004
 Sky Daylight Factors,Clear Sky,12/21,PERIMETER_ZN_3,PERIMETER_ZN_3_WALL_NORTH_WINDOW_5,PERIMETER_ZN_3_DAYLREFPT1,4.2430E-004
 Sky Daylight Factors,Clear Sky,12/21,PERIMETER_ZN_3,PERIMETER_ZN_3_WALL_NORTH_WINDOW_5,PERIMETER_ZN_3_DAYLREFPT2,4.3771E-004
 Sky Daylight Factors,Clear Turbid Sky,12/21,PERIMETER_ZN_3,PERIMETER_ZN_3_WALL_NORTH_WINDOW_5,PERIMETER_ZN_3_DAYLREFPT1,3.4178E-004
 Sky Daylight Factors,Clear Turbid Sky,12/21,PERIMETER_ZN_3,PERIMETER_ZN_3_WALL_NORTH_WINDOW_5,PERIMETER_ZN_3_DAYLREFPT2,3.5243E-004
 Sky Daylight Factors,Intermediate Sky,12/21,PERIMETER_ZN_3,PERIMETER_ZN_3_WALL_NORTH_WINDOW_5,PERIMETER_ZN_3_DAYLREFPT1,2.8367E-004
 Sky Daylight Factors,Intermediate Sky,12/21,PERIMETER_ZN_3,PERIMETER_ZN_3_WALL_NORTH_WINDOW_5,PERIMETER_ZN_3_DAYLREFPT2,2.9123E-004
 Sky Daylight Factors,Overcast Sky,12/21,PERIMETER_ZN_3,PERIMETER_ZN_3_WALL_NORTH_WINDOW_5,PERIMETER_ZN_3_DAYLREFPT1,4.0691E-004
 Sky Daylight Factors,Overcast Sky,12/21,PERIMETER_ZN_3,PERIMETER_ZN_3_WALL_NORTH_WINDOW_5,PERIMETER_ZN_3_DAYLREFPT2,4.1291E-004
 Sky Daylight Factors,Clear Sky,12/21,PERIMETER_ZN_3,PERIMETER_ZN_3_WALL_NORTH_WINDOW_6,PERIMETER_ZN_3_DAYLREFPT1,4.2026E-004
 Sky Daylight Factors,Clear Sky,12/21,PERIMETER_ZN_3,PERIMETER_ZN_3_WALL_NORTH_WINDOW_6,PERIMETER_ZN_3_DAYLREFPT2,4.2299E-004
 Sky Daylight Factors,Clear Turbid Sky,12/21,PERIMETER_ZN_3,PERIMETER_ZN_3_WALL_NORTH_WINDOW_6,PERIMETER_ZN_3_DAYLREFPT1,3.3850E-004
 Sky Daylight Factors,Clear Turbid Sky,12/21,PERIMETER_ZN_3,PERIMETER_ZN_3_WALL_NORTH_WINDOW_6,PERIMETER_ZN_3_DAYLREFPT2,3.4069E-004
 Sky Daylight Factors,Intermediate Sky,12/21,PERIMETER_ZN_3,PERIMETER_ZN_3_WALL_NORTH_WINDOW_6,PERIMETER_ZN_3_DAYLREFPT1,2.8109E-004
 Sky Daylight Factors,Intermediate Sky,12/21,PERIMETER_ZN_3,PERIMETER_ZN_3_WALL_NORTH_WINDOW_6,PERIMETER_ZN_3_DAYLREFPT2,2.8267E-004
 Sky Daylight Factors,Overcast Sky,12/21,PERIMETER_ZN_3,PERIMETER_ZN_3_WALL_NORTH_WINDOW_6,PERIMETER_ZN_3_DAYLREFPT1,4.0507E-004
 Sky Daylight Factors,Overcast Sky,12/21,PERIMETER_ZN_3,PERIMETER_ZN_3_WALL_NORTH_WINDOW_6,PERIMETER_ZN_3_DAYLREFPT2,4.0621E-004
 Sky Daylight Factors,Clear Sky,12/21,PERIMETER_ZN_4,PERIMETER_ZN_4_WALL_WEST_WINDOW_4,PERIMETER_ZN_4_DAYLREFPT1,1.1004E-003
 Sky Daylight Factors,Clear Sky,12/21,PERIMETER_ZN_4,PERIMETER_ZN_4_WALL_WEST_WINDOW_4,PERIMETER_ZN_4_DAYLREFPT2,1.3662E-003
 Sky Daylight Factors,Clear Turbid Sky,12/21,PERIMETER_ZN_4,PERIMETER_ZN_4_WALL_WEST_WINDOW_4,PERIMETER_ZN_4_DAYLREFPT1,1.0603E-003
 Sky Daylight Factors,Clear Turbid Sky,12/21,PERIMETER_ZN_4,PERIMETER_ZN_4_WALL_WEST_WINDOW_4,PERIMETER_ZN_4_DAYLREFPT2,1.3341E-003
 Sky Daylight Factors,Intermediate Sky,12/21,PERIMETER_ZN_4,PERIMETER_ZN_4_WALL_WEST_WINDOW_4,PERIMETER_ZN_4_DAYLREFPT1,8.9897E-004
 Sky Daylight Factors,Intermediate Sky,12/21,PERIMETER_ZN_4,PERIMETER_ZN_4_WALL_WEST_WINDOW_4,PERIMETER_ZN_4_DAYLREFPT2,1.0507E-003
 Sky Daylight Factors,Overcast Sky,12/21,PERIMETER_ZN_4,PERIMETER_ZN_4_WALL_WEST_WINDOW_4,PERIMETER_ZN_4_DAYLREFPT1,6.8571E-004
 Sky Daylight Factors,Overcast Sky,12/21,PERIMETER_ZN_4,PERIMETER_ZN_4_WALL_WEST_WINDOW_4,PERIMETER_ZN_4_DAYLREFPT2,7.3658E-004
 Sky Daylight Factors,Clear Sky,12/21,PERIMETER_ZN_4,PERIMETER_ZN_4_WALL_WEST_WINDOW_3,PERIMETER_ZN_4_DAYLREFPT1,9.9547E-003
 Sky Daylight Factors,Clear Sky,12/21,PERIMETER_ZN_4,PERIMETER_ZN_4_WALL_WEST_WINDOW_3,PERIMETER_ZN_4_DAYLREFPT2,4.6432E-003
 Sky Daylight Factors,Clear Turbid Sky,12/21,PERIMETER_ZN_4,PERIMETER_ZN_4_WALL_WEST_WINDOW_3,PERIMETER_ZN_4_DAYLREFPT1,1.0328E-002
 Sky Daylight Factors,Clear Turbid Sky,12/21,PERIMETER_ZN_4,PERIMETER_ZN_4_WALL_WEST_WINDOW_3,PERIMETER_ZN_4_DAYLREFPT2,4.3948E-003
 Sky Daylight Factors,Intermediate Sky,12/21,PERIMETER_ZN_4,PERIMETER_ZN_4_WALL_WEST_WINDOW_3,PERIMETER_ZN_4_DAYLREFPT1,8.4630E-003
 Sky Daylight Factors,Intermediate Sky,12/21,PERIMETER_ZN_4,PERIMETER_ZN_4_WALL_WEST_WINDOW_3,PERIMETER_ZN_4_DAYLREFPT2,4.0509E-003
 Sky Daylight Factors,Overcast Sky,12/21,PERIMETER_ZN_4,PERIMETER_ZN_4_WALL_WEST_WINDOW_3,PERIMETER_ZN_4_DAYLREFPT1,3.9595E-003
 Sky Daylight Factors,Overcast Sky,12/21,PERIMETER_ZN_4,PERIMETER_ZN_4_WALL_WEST_WINDOW_3,PERIMETER_ZN_4_DAYLREFPT2,2.2470E-003
 Sky Daylight Factors,Clear Sky,12/21,PERIMETER_ZN_4,PERIMETER_ZN_4_WALL_WEST_WINDOW_2,PERIMETER_ZN_4_DAYLREFPT1,3.6693E-003
 Sky Daylight Factors,Clear Sky,12/21,PERIMETER_ZN_4,PERIMETER_ZN_4_WALL_WEST_WINDOW_2,PERIMETER_ZN_4_DAYLREFPT2,2.8468E-003
 Sky Daylight Factors,Clear Turbid Sky,12/21,PERIMETER_ZN_4,PERIMETER_ZN_4_WALL_WEST_WINDOW_2,PERIMETER_ZN_4_DAYLREFPT1,2.9548E-003
 Sky Daylight Factors,Clear Turbid Sky,12/21,PERIMETER_ZN_4,PERIMETER_ZN_4_WALL_WEST_WINDOW_2,PERIMETER_ZN_4_DAYLREFPT2,2.3553E-003
 Sky Daylight Factors,Intermediate Sky,12/21,PERIMETER_ZN_4,PERIMETER_ZN_4_WALL_WEST_WINDOW_2,PERIMETER_ZN_4_DAYLREFPT1,2.6443E-003
 Sky Daylight Factors,Intermediate Sky,12/21,PERIMETER_ZN_4,PERIMETER_ZN_4_WALL_WEST_WINDOW_2,PERIMETER_ZN_4_DAYLREFPT2,2.0981E-003
 Sky Daylight Factors,Overcast Sky,12/21,PERIMETER_ZN_4,PERIMETER_ZN_4_WALL_WEST_WINDOW_2,PERIMETER_ZN_4_DAYLREFPT1,3.3322E-003
 Sky Daylight Factors,Overcast Sky,12/21,PERIMETER_ZN_4,PERIMETER_ZN_4_WALL_WEST_WINDOW_2,PERIMETER_ZN_4_DAYLREFPT2,2.0964E-003
 Sky Daylight Factors,Clear Sky,12/21,PERIMETER_ZN_4,PERIMETER_ZN_4_WALL_WEST_WINDOW_1,PERIMETER_ZN_4_DAYLREFPT1,9.4674E-004
 Sky Daylight Factors,Clear Sky,12/21,PERIMETER_ZN_4,PERIMETER_ZN_4_WALL_WEST_WINDOW_1,PERIMETER_ZN_4_DAYLREFPT2,1.0495E-003
 Sky Daylight Factors,Clear Turbid Sky,12/21,PERIMETER_ZN_4,PERIMETER_ZN_4_WALL_WEST_WINDOW_1,PERIMETER_ZN_4_DAYLREFPT1,8.6974E-004
 Sky Daylight Factors,Clear Turbid Sky,12/21,PERIMETER_ZN_4,PERIMETER_ZN_4_WALL_WEST_WINDOW_1,PERIMETER_ZN_4_DAYLREFPT2,9.4565E-004
 Sky Daylight Factors,Intermediate Sky,12/21,PERIMETER_ZN_4,PERIMETER_ZN_4_WALL_WEST_WINDOW_1,PERIMETER_ZN_4_DAYLREFPT1,8.1451E-004
 Sky Daylight Factors,Intermediate Sky,12/21,PERIMETER_ZN_4,PERIMETER_ZN_4_WALL_WEST_WINDOW_1,PERIMETER_ZN_4_DAYLREFPT2,8.5111E-004
 Sky Daylight Factors,Overcast Sky,12/21,PERIMETER_ZN_4,PERIMETER_ZN_4_WALL_WEST_WINDOW_1,PERIMETER_ZN_4_DAYLREFPT1,6.8212E-004
 Sky Daylight Factors,Overcast Sky,12/21,PERIMETER_ZN_4,PERIMETER_ZN_4_WALL_WEST_WINDOW_1,PERIMETER_ZN_4_DAYLREFPT2,7.2870E-004
! <Zone Sizing Information>, Zone Name, Load Type, Calc Des Load {W}, User Des Load {W}, Calc Des Air Flow Rate {m3/s}, User Des Air Flow Rate {m3/s}, Design Day Name, Date/Time of Peak, Temperature at Peak {C}, Humidity Ratio at Peak {kgWater/kgDryAir}, Floor Area {m2}, # Occupants, Calc Outdoor Air Flow Rate {m3/s}, Calc DOAS Heat Addition Rate {W}
 Zone Sizing Information, CORE_ZN, Cooling, 3302.71305, 3963.25566, 0.26847, 0.32216, SAN.DIEGO-BROWN.FIELD.MUNI.AP_CA_USA ANN CLG .4% CONDNS DB=>MWB, 8/21 15:45:00, 30.89950, 8.23285E-003, 149.65740, 9.02199, 6.46180E-002, 0.00000
 Zone Sizing Information, CORE_ZN, Heating, 445.47993, 534.57591, 1.51504E-002, 6.46180E-002, SAN.DIEGO-BROWN.FIELD.MUNI.AP_CA_USA ANN HTG 99.6% CONDNS DB, 12/21 24:00:00, 3.80000, 5.05843E-003, 149.65740, 9.02199, 6.46180E-002, 0.00000
 Zone Sizing Information, PERIMETER_ZN_1, Cooling, 3126.75033, 3752.10039, 0.25417, 0.30501, SAN.DIEGO-BROWN.FIELD.MUNI.AP_CA_USA ANN CLG .4% CONDNS DB=>MWB, 8/21 14:30:00, 31.30000, 8.23349E-003, 113.45000, 6.83925, 4.89846E-002, 0.00000
 Zone Sizing Information, PERIMETER_ZN_1, Heating, 1117.67826, 1341.21392, 3.80104E-002, 4.89846E-002, SAN.DIEGO-BROWN.FIELD.MUNI.AP_CA_USA ANN HTG 99.6% CONDNS DB, 12/21 24:00:00, 3.80000, 5.05843E-003, 113.45000, 6.83925, 4.89846E-002, 0.00000
 Zone Sizing Information, PERIMETER_ZN_2, Cooling, 2307.09483, 2768.51380, 0.18753, 0.22504, SAN.DIEGO-BROWN.FIELD.MUNI.AP_CA_USA ANN CLG .4% CONDNS DB=>MWB, 8/21 09:45:00, 27.53975, 8.22753E-003, 67.30000, 4.05713, 2.90583E-002, 0.00000
 Zone Sizing Information, PERIMETER_ZN_2, Heating, 688.69652, 826.43582, 2.34214E-002, 2.90583E-002, SAN.DIEGO-BROWN.FIELD.MUNI.AP_CA_USA ANN HTG 99.6% CONDNS DB, 12/21 24:00:00, 3.80000, 5.05843E-003, 67.30000, 4.05713, 2.90583E-002, 0.00000
 Zone Sizing Information, PERIMETER_ZN_3, Cooling, 2829.37315, 3395.24778, 0.22999, 0.27599, SAN.DIEGO-BROWN.FIELD.MUNI.AP_CA_USA ANN CLG .4% CONDNS DB=>MWB, 8/21 15:30:00, 31.03300, 8.23307E-003, 113.45000, 6.83925, 4.89846E-002, 0.00000
 Zone Sizing Information, PERIMETER_ZN_3, Heating, 1095.33057, 1314.39668, 3.72504E-002, 4.89846E-002, SAN.DIEGO-BROWN.FIELD.MUNI.AP_CA_USA ANN HTG 99.6% CONDNS DB, 12/21 24:00:00, 3.80000, 5.05843E-003, 113.45000, 6.83925, 4.89846E-002, 0.00000
 Zone Sizing Information, PERIMETER_ZN_4, Cooling, 2729.68753, 3275.62504, 0.22188, 0.26626, SAN.DIEGO-BROWN.FIELD.MUNI.AP_CA_USA ANN CLG .4% CONDNS DB=>MWB, 8/21 17:30:00, 29.60900, 8.23080E-003, 67.30000, 4.05713, 2.90583E-002, 0.00000
 Zone Sizing Information, PERIMETER_ZN_4, Heating, 689.89354, 827.87225, 2.34621E-002, 2.90583E-002, SAN.DIEGO-BROWN.FIELD.MUNI.AP_CA_USA ANN HTG 99.6% CONDNS DB, 12/21 24:00:00, 3.80000, 5.05843E-003, 67.30000, 4.05713, 2.90583E-002, 0.00000
! <System Sizing Information>, System Name, Load Type, Peak Load Kind, User Design Capacity, Calc Des Air Flow Rate [m3/s], User Des Air Flow Rate [m3/s], Design Day Name, Date/Time of Peak
 System Sizing Information, PSZ-AC:1, Cooling, Sensible, 4508.19, 0.32216, 0.32216, SAN.DIEGO-BROWN.FIELD.MUNI.AP_CA_USA ANN CLG .4% CONDNS DB=>MWB, 8/21 05:00:00
 System Sizing Information, PSZ-AC:1, Heating, Sensible, 2777.82, 6.46180E-002, 6.46180E-002, SAN.DIEGO-BROWN.FIELD.MUNI.AP_CA_USA ANN HTG 99.6% CONDNS DB, 12/21 00:15:00
 System Sizing Information, PSZ-AC:2, Cooling, Sensible, 4176.96, 0.30501, 0.30501, SAN.DIEGO-BROWN.FIELD.MUNI.AP_CA_USA ANN CLG .4% CONDNS DB=>MWB, 8/21 05:00:00
 System Sizing Information, PSZ-AC:2, Heating, Sensible, 2105.76, 4.89846E-002, 4.89846E-002, SAN.DIEGO-BROWN.FIELD.MUNI.AP_CA_USA ANN HTG 99.6% CONDNS DB, 12/21 00:15:00
 System Sizing Information, PSZ-AC:3, Cooling, Sensible, 2882.37, 0.22504, 0.22504, SAN.DIEGO-BROWN.FIELD.MUNI.AP_CA_USA ANN CLG .4% CONDNS DB=>MWB, 8/21 05:00:00
 System Sizing Information, PSZ-AC:3, Heating, Sensible, 1249.17, 2.90583E-002, 2.90583E-002, SAN.DIEGO-BROWN.FIELD.MUNI.AP_CA_USA ANN HTG 99.6% CONDNS DB, 12/21 00:15:00
 System Sizing Information, PSZ-AC:4, Cooling, Sensible, 3810.07, 0.27599, 0.27599, SAN.DIEGO-BROWN.FIELD.MUNI.AP_CA_USA ANN CLG .4% CONDNS DB=>MWB, 8/21 05:00:00
 System Sizing Information, PSZ-AC:4, Heating, Sensible, 2105.76, 4.89846E-002, 4.89846E-002, SAN.DIEGO-BROWN.FIELD.MUNI.AP_CA_USA ANN HTG 99.6% CONDNS DB, 12/21 00:15:00
 System Sizing Information, PSZ-AC:5, Cooling, Sensible, 3453.05, 0.26626, 0.26626, SAN.DIEGO-BROWN.FIELD.MUNI.AP_CA_USA ANN CLG .4% CONDNS DB=>MWB, 8/21 05:00:00
 System Sizing Information, PSZ-AC:5, Heating, Sensible, 1249.17, 2.90583E-002, 2.90583E-002, SAN.DIEGO-BROWN.FIELD.MUNI.AP_CA_USA ANN HTG 99.6% CONDNS DB, 12/21 00:15:00
! <Component Sizing Information>, Component Type, Component Name, Input Field Description, Value
 Component Sizing Information, AirTerminal:SingleDuct:ConstantVolume:NoReheat, CORE_ZN DIRECT AIR, Design Size Maximum Air Flow Rate [m3/s], 0.32216
 Component Sizing Information, AirTerminal:SingleDuct:ConstantVolume:NoReheat, PERIMETER_ZN_1 DIRECT AIR, Design Size Maximum Air Flow Rate [m3/s], 0.30501
 Component Sizing Information, AirTerminal:SingleDuct:ConstantVolume:NoReheat, PERIMETER_ZN_2 DIRECT AIR, Design Size Maximum Air Flow Rate [m3/s], 0.22504
 Component Sizing Information, AirTerminal:SingleDuct:ConstantVolume:NoReheat, PERIMETER_ZN_3 DIRECT AIR, Design Size Maximum Air Flow Rate [m3/s], 0.27599
 Component Sizing Information, AirTerminal:SingleDuct:ConstantVolume:NoReheat, PERIMETER_ZN_4 DIRECT AIR, Design Size Maximum Air Flow Rate [m3/s], 0.26626
 Component Sizing Information, AirLoopHVAC, PSZ-AC:1, Sum of Air Terminal Maximum Heating Flow Rates [m3/s], 0.32216
 Component Sizing Information, AirLoopHVAC, PSZ-AC:1, Sum of Air Terminal Minimum Heating Flow Rates [m3/s], 0.32216
 Component Sizing Information, AirLoopHVAC, PSZ-AC:1, Sum of Air Terminal Maximum Flow Rates [m3/s], 0.32216
 Component Sizing Information, AirLoopHVAC, PSZ-AC:1, Adjusted Heating Design Air Flow Rate [m3/s], 0.32216
 Component Sizing Information, AirLoopHVAC, PSZ-AC:1, Adjusted Cooling Design Air Flow Rate [m3/s], 0.32216
 Component Sizing Information, AirLoopHVAC, PSZ-AC:1, Adjusted Main Design Air Flow Rate [m3/s], 0.32216
 Component Sizing Information, AirLoopHVAC, PSZ-AC:1, User Heating Air Flow Ratio [], 0.30000
 Component Sizing Information, AirLoopHVAC, PSZ-AC:1, Calculated Heating Air Flow Ratio [], 1.00000
 Component Sizing Information, AirLoopHVAC, PSZ-AC:2, Sum of Air Terminal Maximum Heating Flow Rates [m3/s], 0.30501
 Component Sizing Information, AirLoopHVAC, PSZ-AC:2, Sum of Air Terminal Minimum Heating Flow Rates [m3/s], 0.30501
 Component Sizing Information, AirLoopHVAC, PSZ-AC:2, Sum of Air Terminal Maximum Flow Rates [m3/s], 0.30501
 Component Sizing Information, AirLoopHVAC, PSZ-AC:2, Adjusted Heating Design Air Flow Rate [m3/s], 0.30501
 Component Sizing Information, AirLoopHVAC, PSZ-AC:2, Adjusted Cooling Design Air Flow Rate [m3/s], 0.30501
 Component Sizing Information, AirLoopHVAC, PSZ-AC:2, Adjusted Main Design Air Flow Rate [m3/s], 0.30501
 Component Sizing Information, AirLoopHVAC, PSZ-AC:2, User Heating Air Flow Ratio [], 0.30000
 Component Sizing Information, AirLoopHVAC, PSZ-AC:2, Calculated Heating Air Flow Ratio [], 1.00000
 Component Sizing Information, AirLoopHVAC, PSZ-AC:3, Sum of Air Terminal Maximum Heating Flow Rates [m3/s], 0.22504
 Component Sizing Information, AirLoopHVAC, PSZ-AC:3, Sum of Air Terminal Minimum Heating Flow Rates [m3/s], 0.22504
 Component Sizing Information, AirLoopHVAC, PSZ-AC:3, Sum of Air Terminal Maximum Flow Rates [m3/s], 0.22504
 Component Sizing Information, AirLoopHVAC, PSZ-AC:3, Adjusted Heating Design Air Flow Rate [m3/s], 0.22504
 Component Sizing Information, AirLoopHVAC, PSZ-AC:3, Adjusted Cooling Design Air Flow Rate [m3/s], 0.22504
 Component Sizing Information, AirLoopHVAC, PSZ-AC:3, Adjusted Main Design Air Flow Rate [m3/s], 0.22504
 Component Sizing Information, AirLoopHVAC, PSZ-AC:3, User Heating Air Flow Ratio [], 0.30000
 Component Sizing Information, AirLoopHVAC, PSZ-AC:3, Calculated Heating Air Flow Ratio [], 1.00000
 Component Sizing Information, AirLoopHVAC, PSZ-AC:4, Sum of Air Terminal Maximum Heating Flow Rates [m3/s], 0.27599
 Component Sizing Information, AirLoopHVAC, PSZ-AC:4, Sum of Air Terminal Minimum Heating Flow Rates [m3/s], 0.27599
 Component Sizing Information, AirLoopHVAC, PSZ-AC:4, Sum of Air Terminal Maximum Flow Rates [m3/s], 0.27599
 Component Sizing Information, AirLoopHVAC, PSZ-AC:4, Adjusted Heating Design Air Flow Rate [m3/s], 0.27599
 Component Sizing Information, AirLoopHVAC, PSZ-AC:4, Adjusted Cooling Design Air Flow Rate [m3/s], 0.27599
 Component Sizing Information, AirLoopHVAC, PSZ-AC:4, Adjusted Main Design Air Flow Rate [m3/s], 0.27599
 Component Sizing Information, AirLoopHVAC, PSZ-AC:4, User Heating Air Flow Ratio [], 0.30000
 Component Sizing Information, AirLoopHVAC, PSZ-AC:4, Calculated Heating Air Flow Ratio [], 1.00000
 Component Sizing Information, AirLoopHVAC, PSZ-AC:5, Sum of Air Terminal Maximum Heating Flow Rates [m3/s], 0.26626
 Component Sizing Information, AirLoopHVAC, PSZ-AC:5, Sum of Air Terminal Minimum Heating Flow Rates [m3/s], 0.26626
 Component Sizing Information, AirLoopHVAC, PSZ-AC:5, Sum of Air Terminal Maximum Flow Rates [m3/s], 0.26626
 Component Sizing Information, AirLoopHVAC, PSZ-AC:5, Adjusted Heating Design Air Flow Rate [m3/s], 0.26626
 Component Sizing Information, AirLoopHVAC, PSZ-AC:5, Adjusted Cooling Design Air Flow Rate [m3/s], 0.26626
 Component Sizing Information, AirLoopHVAC, PSZ-AC:5, Adjusted Main Design Air Flow Rate [m3/s], 0.26626
 Component Sizing Information, AirLoopHVAC, PSZ-AC:5, User Heating Air Flow Ratio [], 0.30000
 Component Sizing Information, AirLoopHVAC, PSZ-AC:5, Calculated Heating Air Flow Ratio [], 1.00000
 Component Sizing Information, AirLoopHVAC, PSZ-AC:1, Design Supply Air Flow Rate [m3/s], 0.32216
 Component Sizing Information, AirLoopHVAC, PSZ-AC:2, Design Supply Air Flow Rate [m3/s], 0.30501
 Component Sizing Information, AirLoopHVAC, PSZ-AC:3, Design Supply Air Flow Rate [m3/s], 0.22504
 Component Sizing Information, AirLoopHVAC, PSZ-AC:4, Design Supply Air Flow Rate [m3/s], 0.27599
 Component Sizing Information, AirLoopHVAC, PSZ-AC:5, Design Supply Air Flow Rate [m3/s], 0.26626
 Component Sizing Information, Controller:OutdoorAir, PSZ-AC:1_OA_CONTROLLER, Maximum Outdoor Air Flow Rate [m3/s], 0.32216
 Component Sizing Information, Controller:OutdoorAir, PSZ-AC:1_OA_CONTROLLER, Minimum Outdoor Air Flow Rate [m3/s], 6.46180E-002
 Component Sizing Information, Coil:Cooling:DX:SingleSpeed, PSZ-AC:1 HEAT PUMP DX COOLING COIL, Design Size Rated Air Flow Rate [m3/s], 0.32216
 Component Sizing Information, Coil:Cooling:DX:SingleSpeed, PSZ-AC:1 HEAT PUMP DX COOLING COIL, Design Size Gross Rated Total Cooling Capacity [W], 5332.86297
 Component Sizing Information, Coil:Cooling:DX:SingleSpeed, PSZ-AC:1 HEAT PUMP DX COOLING COIL, Design Size Gross Rated Sensible Heat Ratio, 0.80066
! <DX Cooling Coil Standard Rating Information>, Component Type, Component Name, Standard Rating (Net) Cooling Capacity {W}, Standard Rated Net COP {W/W}, EER {Btu/W-h}, SEER User {Btu/W-h}, SEER Standard {Btu/W-h}, IEER {Btu/W-h}
 DX Cooling Coil Standard Rating Information, Coil:Cooling:DX:SingleSpeed, PSZ-AC:1 HEAT PUMP DX COOLING COIL, 5080.4, 3.29, 11.22, 11.74, 11.10, 10.96
 Component Sizing Information, AirLoopHVAC:UnitaryHeatPump:AirToAir, PSZ-AC:1_HEATPUMP, Supply Air Flow Rate [m3/s], 0.32216
 Component Sizing Information, AirLoopHVAC:UnitaryHeatPump:AirToAir, PSZ-AC:1_HEATPUMP, Supply Air Flow Rate During Heating Operation [m3/s], 0.32216
 Component Sizing Information, AirLoopHVAC:UnitaryHeatPump:AirToAir, PSZ-AC:1_HEATPUMP, Supply Air Flow Rate During Cooling Operation [m3/s], 0.32216
 Component Sizing Information, AirLoopHVAC:UnitaryHeatPump:AirToAir, PSZ-AC:1_HEATPUMP, Supply Air Flow Rate When No Cooling or Heating is Needed [m3/s], 0.32216
 Component Sizing Information, AirLoopHVAC:UnitaryHeatPump:AirToAir, PSZ-AC:1_HEATPUMP, Nominal Heating Capacity [W], 5332.86297
 Component Sizing Information, AirLoopHVAC:UnitaryHeatPump:AirToAir, PSZ-AC:1_HEATPUMP, Nominal Cooling Capacity [W], 5332.86297
 Component Sizing Information, AirLoopHVAC:UnitaryHeatPump:AirToAir, PSZ-AC:1_HEATPUMP, Maximum Supply Air Temperature from Supplemental Heater [C], 40.00000
 Component Sizing Information, AirLoopHVAC:UnitaryHeatPump:AirToAir, PSZ-AC:1_HEATPUMP, Supplemental Heating Coil Nominal Capacity [W], 2777.81515
 Component Sizing Information, AirLoopHVAC:UnitaryHeatPump:AirToAir, PSZ-AC:1_HEATPUMP, Fraction of Supply Air Flow That Goes Through the Controlling Zone, 1.00000
 Component Sizing Information, Fan:OnOff, PSZ-AC:1 FAN, Design Size Maximum Flow Rate [m3/s], 0.32216
 Component Sizing Information, Coil:Heating:DX:SingleSpeed, PSZ-AC:1 HEAT PUMP DX HEATING COIL, Design Size Rated Air Flow Rate [m3/s], 0.32216
 Component Sizing Information, Coil:Heating:DX:SingleSpeed, PSZ-AC:1 HEAT PUMP DX HEATING COIL, Design Size Gross Rated Heating Capacity [W], 5332.86297
! <DX Heating Coil Standard Rating Information>, Component Type, Component Name, High Temperature Heating (net) Rating Capacity {W}, Low Temperature Heating (net) Rating Capacity {W}, HSPF {Btu/W-h}, Region Number
 DX Heating Coil Standard Rating Information, Coil:Heating:DX:SingleSpeed, PSZ-AC:1 HEAT PUMP DX HEATING COIL, 5588.5, 3112.4, 7.32, 4
 Component Sizing Information, Coil:Heating:Fuel, PSZ-AC:1 HEAT PUMP DX SUPP HEATING COIL, Design Size Nominal Capacity [W], 2777.81515
 Component Sizing Information, Controller:OutdoorAir, PSZ-AC:2_OA_CONTROLLER, Maximum Outdoor Air Flow Rate [m3/s], 0.30501
 Component Sizing Information, Controller:OutdoorAir, PSZ-AC:2_OA_CONTROLLER, Minimum Outdoor Air Flow Rate [m3/s], 4.89846E-002
 Component Sizing Information, Coil:Cooling:DX:SingleSpeed, PSZ-AC:2 HEAT PUMP DX COOLING COIL, Design Size Rated Air Flow Rate [m3/s], 0.30501
 Component Sizing Information, Coil:Cooling:DX:SingleSpeed, PSZ-AC:2 HEAT PUMP DX COOLING COIL, Design Size Gross Rated Total Cooling Capacity [W], 5048.97988
 Component Sizing Information, Coil:Cooling:DX:SingleSpeed, PSZ-AC:2 HEAT PUMP DX COOLING COIL, Design Size Gross Rated Sensible Heat Ratio, 0.80066
 DX Cooling Coil Standard Rating Information, Coil:Cooling:DX:SingleSpeed, PSZ-AC:2 HEAT PUMP DX COOLING COIL, 4809.9, 3.29, 11.22, 11.74, 11.10, 10.96
 Component Sizing Information, AirLoopHVAC:UnitaryHeatPump:AirToAir, PSZ-AC:2_HEATPUMP, Supply Air Flow Rate [m3/s], 0.30501
 Component Sizing Information, AirLoopHVAC:UnitaryHeatPump:AirToAir, PSZ-AC:2_HEATPUMP, Supply Air Flow Rate During Heating Operation [m3/s], 0.30501
 Component Sizing Information, AirLoopHVAC:UnitaryHeatPump:AirToAir, PSZ-AC:2_HEATPUMP, Supply Air Flow Rate During Cooling Operation [m3/s], 0.30501
 Component Sizing Information, AirLoopHVAC:UnitaryHeatPump:AirToAir, PSZ-AC:2_HEATPUMP, Supply Air Flow Rate When No Cooling or Heating is Needed [m3/s], 0.30501
 Component Sizing Information, AirLoopHVAC:UnitaryHeatPump:AirToAir, PSZ-AC:2_HEATPUMP, Nominal Heating Capacity [W], 5048.97988
 Component Sizing Information, AirLoopHVAC:UnitaryHeatPump:AirToAir, PSZ-AC:2_HEATPUMP, Nominal Cooling Capacity [W], 5048.97988
 Component Sizing Information, AirLoopHVAC:UnitaryHeatPump:AirToAir, PSZ-AC:2_HEATPUMP, Maximum Supply Air Temperature from Supplemental Heater [C], 40.00000
 Component Sizing Information, AirLoopHVAC:UnitaryHeatPump:AirToAir, PSZ-AC:2_HEATPUMP, Supplemental Heating Coil Nominal Capacity [W], 2105.76375
 Component Sizing Information, AirLoopHVAC:UnitaryHeatPump:AirToAir, PSZ-AC:2_HEATPUMP, Fraction of Supply Air Flow That Goes Through the Controlling Zone, 1.00000
 Component Sizing Information, Fan:OnOff, PSZ-AC:2 FAN, Design Size Maximum Flow Rate [m3/s], 0.30501
 Component Sizing Information, Coil:Heating:DX:SingleSpeed, PSZ-AC:2 HEAT PUMP DX HEATING COIL, Design Size Rated Air Flow Rate [m3/s], 0.30501
 Component Sizing Information, Coil:Heating:DX:SingleSpeed, PSZ-AC:2 HEAT PUMP DX HEATING COIL, Design Size Gross Rated Heating Capacity [W], 5048.97988
 DX Heating Coil Standard Rating Information, Coil:Heating:DX:SingleSpeed, PSZ-AC:2 HEAT PUMP DX HEATING COIL, 5291.0, 2946.8, 7.32, 4
 Component Sizing Information, Coil:Heating:Fuel, PSZ-AC:2 HEAT PUMP DX SUPP HEATING COIL, Design Size Nominal Capacity [W], 2105.76375
 Component Sizing Information, Controller:OutdoorAir, PSZ-AC:3_OA_CONTROLLER, Maximum Outdoor Air Flow Rate [m3/s], 0.22504
 Component Sizing Information, Controller:OutdoorAir, PSZ-AC:3_OA_CONTROLLER, Minimum Outdoor Air Flow Rate [m3/s], 2.90583E-002
 Component Sizing Information, Coil:Cooling:DX:SingleSpeed, PSZ-AC:3 HEAT PUMP DX COOLING COIL, Design Size Rated Air Flow Rate [m3/s], 0.22504
 Component Sizing Information, Coil:Cooling:DX:SingleSpeed, PSZ-AC:3 HEAT PUMP DX COOLING COIL, Design Size Gross Rated Total Cooling Capacity [W], 3725.13759
 Component Sizing Information, Coil:Cooling:DX:SingleSpeed, PSZ-AC:3 HEAT PUMP DX COOLING COIL, Design Size Gross Rated Sensible Heat Ratio, 0.80066
 DX Cooling Coil Standard Rating Information, Coil:Cooling:DX:SingleSpeed, PSZ-AC:3 HEAT PUMP DX COOLING COIL, 3548.8, 3.29, 11.22, 11.74, 11.10, 10.96
 Component Sizing Information, AirLoopHVAC:UnitaryHeatPump:AirToAir, PSZ-AC:3_HEATPUMP, Supply Air Flow Rate [m3/s], 0.22504
 Component Sizing Information, AirLoopHVAC:UnitaryHeatPump:AirToAir, PSZ-AC:3_HEATPUMP, Supply Air Flow Rate During Heating Operation [m3/s], 0.22504
 Component Sizing Information, AirLoopHVAC:UnitaryHeatPump:AirToAir, PSZ-AC:3_HEATPUMP, Supply Air Flow Rate During Cooling Operation [m3/s], 0.22504
 Component Sizing Information, AirLoopHVAC:UnitaryHeatPump:AirToAir, PSZ-AC:3_HEATPUMP, Supply Air Flow Rate When No Cooling or Heating is Needed [m3/s], 0.22504
 Component Sizing Information, AirLoopHVAC:UnitaryHeatPump:AirToAir, PSZ-AC:3_HEATPUMP, Nominal Heating Capacity [W], 3725.13759
 Component Sizing Information, AirLoopHVAC:UnitaryHeatPump:AirToAir, PSZ-AC:3_HEATPUMP, Nominal Cooling Capacity [W], 3725.13759
 Component Sizing Information, AirLoopHVAC:UnitaryHeatPump:AirToAir, PSZ-AC:3_HEATPUMP, Maximum Supply Air Temperature from Supplemental Heater [C], 40.00000
 Component Sizing Information, AirLoopHVAC:UnitaryHeatPump:AirToAir, PSZ-AC:3_HEATPUMP, Supplemental Heating Coil Nominal Capacity [W], 1249.16616
 Component Sizing Information, AirLoopHVAC:UnitaryHeatPump:AirToAir, PSZ-AC:3_HEATPUMP, Fraction of Supply Air Flow That Goes Through the Controlling Zone, 1.00000
 Component Sizing Information, Fan:OnOff, PSZ-AC:3 FAN, Design Size Maximum Flow Rate [m3/s], 0.22504
 Component Sizing Information, Coil:Heating:DX:SingleSpeed, PSZ-AC:3 HEAT PUMP DX HEATING COIL, Design Size Rated Air Flow Rate [m3/s], 0.22504
 Component Sizing Information, Coil:Heating:DX:SingleSpeed, PSZ-AC:3 HEAT PUMP DX HEATING COIL, Design Size Gross Rated Heating Capacity [W], 3725.13759
 DX Heating Coil Standard Rating Information, Coil:Heating:DX:SingleSpeed, PSZ-AC:3 HEAT PUMP DX HEATING COIL, 3903.7, 2174.1, 7.32, 4
 Component Sizing Information, Coil:Heating:Fuel, PSZ-AC:3 HEAT PUMP DX SUPP HEATING COIL, Design Size Nominal Capacity [W], 1249.16616
 Component Sizing Information, Controller:OutdoorAir, PSZ-AC:4_OA_CONTROLLER, Maximum Outdoor Air Flow Rate [m3/s], 0.27599
 Component Sizing Information, Controller:OutdoorAir, PSZ-AC:4_OA_CONTROLLER, Minimum Outdoor Air Flow Rate [m3/s], 4.89846E-002
 Component Sizing Information, Coil:Cooling:DX:SingleSpeed, PSZ-AC:4 HEAT PUMP DX COOLING COIL, Design Size Rated Air Flow Rate [m3/s], 0.27599
 Component Sizing Information, Coil:Cooling:DX:SingleSpeed, PSZ-AC:4 HEAT PUMP DX COOLING COIL, Design Size Gross Rated Total Cooling Capacity [W], 4568.58589
 Component Sizing Information, Coil:Cooling:DX:SingleSpeed, PSZ-AC:4 HEAT PUMP DX COOLING COIL, Design Size Gross Rated Sensible Heat Ratio, 0.80066
 DX Cooling Coil Standard Rating Information, Coil:Cooling:DX:SingleSpeed, PSZ-AC:4 HEAT PUMP DX COOLING COIL, 4352.3, 3.29, 11.22, 11.74, 11.10, 10.96
 Component Sizing Information, AirLoopHVAC:UnitaryHeatPump:AirToAir, PSZ-AC:4_HEATPUMP, Supply Air Flow Rate [m3/s], 0.27599
 Component Sizing Information, AirLoopHVAC:UnitaryHeatPump:AirToAir, PSZ-AC:4_HEATPUMP, Supply Air Flow Rate During Heating Operation [m3/s], 0.27599
 Component Sizing Information, AirLoopHVAC:UnitaryHeatPump:AirToAir, PSZ-AC:4_HEATPUMP, Supply Air Flow Rate During Cooling Operation [m3/s], 0.27599
 Component Sizing Information, AirLoopHVAC:UnitaryHeatPump:AirToAir, PSZ-AC:4_HEATPUMP, Supply Air Flow Rate When No Cooling or Heating is Needed [m3/s], 0.27599
 Component Sizing Information, AirLoopHVAC:UnitaryHeatPump:AirToAir, PSZ-AC:4_HEATPUMP, Nominal Heating Capacity [W], 4568.58589
 Component Sizing Information, AirLoopHVAC:UnitaryHeatPump:AirToAir, PSZ-AC:4_HEATPUMP, Nominal Cooling Capacity [W], 4568.58589
 Component Sizing Information, AirLoopHVAC:UnitaryHeatPump:AirToAir, PSZ-AC:4_HEATPUMP, Maximum Supply Air Temperature from Supplemental Heater [C], 40.00000
 Component Sizing Information, AirLoopHVAC:UnitaryHeatPump:AirToAir, PSZ-AC:4_HEATPUMP, Supplemental Heating Coil Nominal Capacity [W], 2105.76375
 Component Sizing Information, AirLoopHVAC:UnitaryHeatPump:AirToAir, PSZ-AC:4_HEATPUMP, Fraction of Supply Air Flow That Goes Through the Controlling Zone, 1.00000
 Component Sizing Information, Fan:OnOff, PSZ-AC:4 FAN, Design Size Maximum Flow Rate [m3/s], 0.27599
 Component Sizing Information, Coil:Heating:DX:SingleSpeed, PSZ-AC:4 HEAT PUMP DX HEATING COIL, Design Size Rated Air Flow Rate [m3/s], 0.27599
 Component Sizing Information, Coil:Heating:DX:SingleSpeed, PSZ-AC:4 HEAT PUMP DX HEATING COIL, Design Size Gross Rated Heating Capacity [W], 4568.58589
 DX Heating Coil Standard Rating Information, Coil:Heating:DX:SingleSpeed, PSZ-AC:4 HEAT PUMP DX HEATING COIL, 4787.5, 2666.4, 7.35, 4
 Component Sizing Information, Coil:Heating:Fuel, PSZ-AC:4 HEAT PUMP DX SUPP HEATING COIL, Design Size Nominal Capacity [W], 2105.76375
 Component Sizing Information, Controller:OutdoorAir, PSZ-AC:5_OA_CONTROLLER, Maximum Outdoor Air Flow Rate [m3/s], 0.26626
 Component Sizing Information, Controller:OutdoorAir, PSZ-AC:5_OA_CONTROLLER, Minimum Outdoor Air Flow Rate [m3/s], 2.90583E-002
 Component Sizing Information, Coil:Cooling:DX:SingleSpeed, PSZ-AC:5 HEAT PUMP DX COOLING COIL, Design Size Rated Air Flow Rate [m3/s], 0.26626
 Component Sizing Information, Coil:Cooling:DX:SingleSpeed, PSZ-AC:5 HEAT PUMP DX COOLING COIL, Design Size Gross Rated Total Cooling Capacity [W], 4407.49935
 Component Sizing Information, Coil:Cooling:DX:SingleSpeed, PSZ-AC:5 HEAT PUMP DX COOLING COIL, Design Size Gross Rated Sensible Heat Ratio, 0.80066
 DX Cooling Coil Standard Rating Information, Coil:Cooling:DX:SingleSpeed, PSZ-AC:5 HEAT PUMP DX COOLING COIL, 4198.8, 3.29, 11.22, 11.74, 11.10, 10.96
 Component Sizing Information, AirLoopHVAC:UnitaryHeatPump:AirToAir, PSZ-AC:5_HEATPUMP, Supply Air Flow Rate [m3/s], 0.26626
 Component Sizing Information, AirLoopHVAC:UnitaryHeatPump:AirToAir, PSZ-AC:5_HEATPUMP, Supply Air Flow Rate During Heating Operation [m3/s], 0.26626
 Component Sizing Information, AirLoopHVAC:UnitaryHeatPump:AirToAir, PSZ-AC:5_HEATPUMP, Supply Air Flow Rate During Cooling Operation [m3/s], 0.26626
 Component Sizing Information, AirLoopHVAC:UnitaryHeatPump:AirToAir, PSZ-AC:5_HEATPUMP, Supply Air Flow Rate When No Cooling or Heating is Needed [m3/s], 0.26626
 Component Sizing Information, AirLoopHVAC:UnitaryHeatPump:AirToAir, PSZ-AC:5_HEATPUMP, Nominal Heating Capacity [W], 4407.49935
 Component Sizing Information, AirLoopHVAC:UnitaryHeatPump:AirToAir, PSZ-AC:5_HEATPUMP, Nominal Cooling Capacity [W], 4407.49935
 Component Sizing Information, AirLoopHVAC:UnitaryHeatPump:AirToAir, PSZ-AC:5_HEATPUMP, Maximum Supply Air Temperature from Supplemental Heater [C], 40.00000
 Component Sizing Information, AirLoopHVAC:UnitaryHeatPump:AirToAir, PSZ-AC:5_HEATPUMP, Supplemental Heating Coil Nominal Capacity [W], 1249.16616
 Component Sizing Information, AirLoopHVAC:UnitaryHeatPump:AirToAir, PSZ-AC:5_HEATPUMP, Fraction of Supply Air Flow That Goes Through the Controlling Zone, 1.00000
 Component Sizing Information, Fan:OnOff, PSZ-AC:5 FAN, Design Size Maximum Flow Rate [m3/s], 0.26626
 Component Sizing Information, Coil:Heating:DX:SingleSpeed, PSZ-AC:5 HEAT PUMP DX HEATING COIL, Design Size Rated Air Flow Rate [m3/s], 0.26626
 Component Sizing Information, Coil:Heating:DX:SingleSpeed, PSZ-AC:5 HEAT PUMP DX HEATING COIL, Design Size Gross Rated Heating Capacity [W], 4407.49935
 DX Heating Coil Standard Rating Information, Coil:Heating:DX:SingleSpeed, PSZ-AC:5 HEAT PUMP DX HEATING COIL, 4618.7, 2572.4, 7.34, 4
 Component Sizing Information, Coil:Heating:Fuel, PSZ-AC:5 HEAT PUMP DX SUPP HEATING COIL, Design Size Nominal Capacity [W], 1249.16616
Water Heater Information,WaterHeater:Mixed,SHWSYS1 WATER HEATER,0.1514,11722.8,1.754,0.5079
 Component Sizing Information, PlantLoop, SHWSYS1, Maximum Loop Flow Rate [m3/s], 4.04800E-006
 Component Sizing Information, PlantLoop, SHWSYS1, Plant Loop Volume [m3], 4.85760E-004
 Component Sizing Information, Pump:ConstantSpeed, SHWSYS1 PUMP, Design Flow Rate [m3/s], 4.04800E-006
 Component Sizing Information, Pump:ConstantSpeed, SHWSYS1 PUMP, Design Power Consumption [W], 1.72991E-008
! <Environment>,Environment Name,Environment Type, Start Date, End Date, Start DayOfWeek, Duration {#days}, Source:Start DayOfWeek,  Use Daylight Saving, Use Holidays, Apply Weekend Holiday Rule,  Use Rain Values, Use Snow Values, Sky Temperature Model
! <Environment:Special Days>, Special Day Name, Special Day Type, Source, Start Date, Duration {#days}
! <Environment:Daylight Saving>, Daylight Saving Indicator, Source, Start Date, End Date
! <Environment:WarmupDays>, NumberofWarmupDays
Environment,RUNPERIOD 1,WeatherFileRunPeriod,07/01/2007,07/10/2007,Sunday,10,Use RunPeriod Specified Day,No,No,No,Yes,Yes,Clark and Allen
Environment:Daylight Saving,Yes,InputFile,03/11,11/04
Environment:Special Days,NEW YEARS DAY,Holiday,InputFile,01/01,  1Environment:Special Days,VETERANS DAY,Holiday,InputFile,11/11,  1Environment:Special Days,CHRISTMAS,Holiday,InputFile,12/25,  1Environment:Special Days,INDEPENDENCE DAY,Holiday,InputFile,07/04,  1Environment:Special Days,MLK DAY,Holiday,InputFile,01/15,  1Environment:Special Days,PRESIDENTS DAY,Holiday,InputFile,02/19,  1Environment:Special Days,MEMORIAL DAY,Holiday,InputFile,05/28,  1Environment:Special Days,LABOR DAY,Holiday,InputFile,09/03,  1Environment:Special Days,COLUMBUS DAY,Holiday,InputFile,10/08,  1Environment:Special Days,THANKSGIVING,Holiday,InputFile,11/22,  1Environment:WarmupDays,  6
! <Tabular Report>,Style,Unit Conversion
Tabular Report,Commaandhtml,commaandhtml
! <Warmup Convergence Information>,Zone Name,Environment Type/Name,Average Warmup Temperature Difference {deltaC},Std Dev Warmup Temperature Difference {deltaC},Max Temperature Pass/Fail Convergence,Min Temperature Pass/Fail Convergence,Average Warmup Load Difference {W},Std Dev Warmup Load Difference {W},Heating Load Pass/Fail Convergence,Cooling Load Pass/Fail Convergence
 Warmup Convergence Information,CORE_ZN,RunPeriod: RUNPERIOD 1,1.0677690729E-006,2.1789330669E-006,Pass,Pass,3.3554224178E-002,0.1329930552,Pass,Pass
 Warmup Convergence Information,PERIMETER_ZN_1,RunPeriod: RUNPERIOD 1,1.0469877476E-002,2.6237528218E-002,Pass,Pass,0.3004684722,0.7776236686,Pass,Pass
 Warmup Convergence Information,PERIMETER_ZN_2,RunPeriod: RUNPERIOD 1,2.3699800563E-003,8.5665463045E-003,Pass,Pass,8.1298221348E-002,0.1265887526,Pass,Pass
 Warmup Convergence Information,PERIMETER_ZN_3,RunPeriod: RUNPERIOD 1,9.6157089679E-003,2.4683134379E-002,Pass,Pass,0.1396603340,0.3195454613,Pass,Pass
 Warmup Convergence Information,PERIMETER_ZN_4,RunPeriod: RUNPERIOD 1,1.5143228274E-006,2.8487209997E-006,Pass,Pass,0.1067866715,8.3230269195E-002,Pass,Pass
 Warmup Convergence Information,ATTIC,RunPeriod: RUNPERIOD 1,0.8280956974,0.6736037759,Pass,Pass,0.0000000000,0.0000000000,Pass,Pass
! <Program Control Information:Threads/Parallel Sims>, Threading Supported,Maximum Number of Threads, Env Set Threads (OMP_NUM_THREADS), EP Env Set Threads (EP_OMP_NUM_THREADS), IDF Set Threads, Number of Threads Used (Interior Radiant Exchange), Number Nominal Surfaces, Number Parallel Sims
Program Control:Threads/Parallel Sims, No,1, N/A, N/A, N/A, N/A, N/A, N/A
End of Data
