Program Version,EnergyPlus, Version 9.4.0-998c4b761e, YMD=2021.01.15 11:04,
   ** Warning ** Output:PreprocessorMessage="GroundTempCalc - Slab" has the following Warning condition:
   **   ~~~   ** Slab thickness [0.100 m] reset to 0.123 m  for computational stability.
   ************* Successfully added path "G:\\Shared drives\\_Research Repository - Mostafa Ebrahimi Meimand\\Working Papers\\Conferences\\CRC 2022\\Simulation" to the sys.path in Python
   ************* PythonPlugin: Class CoolingSetPoint imported from: G:\Shared drives\_Research Repository - Mostafa Ebrahimi Meimand\Working Papers\Conferences\CRC 2022\Simulation\SF+elecres+slab+IECC_2018.py
   ************* PythonPlugin: Class HeatingSetPoint imported from: G:\Shared drives\_Research Repository - Mostafa Ebrahimi Meimand\Working Papers\Conferences\CRC 2022\Simulation\SF+elecres+slab+IECC_2018.py
   ************* Beginning Zone Sizing Calculations
   ** Warning ** Weather file location will be used rather than entered (IDF) Location object.
   **   ~~~   ** ..Location object=HONOLULU INTL ARPT_HI_USA DESIGN_CONDITIONS
   **   ~~~   ** ..Weather File Location=NORFOLK VA USA TMY2-13737 WMO#=723080
   **   ~~~   ** ..due to location differences, Latitude difference=[15.58] degrees, Longitude difference=[81.73] degrees.
   **   ~~~   ** ..Time Zone difference=[5.0] hour(s), Elevation difference=[350.00] percent, [7.00] meters.
   ** Warning ** CalculateZoneVolume: 1 zone is not fully enclosed. For more details use:  Output:Diagnostics,DisplayExtrawarnings; 
   ** Warning ** CheckUsedConstructions: There are 14 nominally unused constructions in input.
   **   ~~~   ** For explicit details on each unused construction, use Output:Diagnostics,DisplayExtraWarnings;
   ** Warning ** Calculated design heating load for zone=LIVING_UNIT1 is zero.
   **   ~~~   ** Check Sizing:Zone and ZoneControl:Thermostat inputs.
   ************* Beginning System Sizing Calculations
   ** Warning ** Check input. Pump nominal power or motor efficiency is set to 0, for pump=MAINS PRESSURE_UNIT1
   ************* Testing Individual Branch Integrity
   ************* All Branches passed integrity testing
   ************* Testing Individual Supply Air Path Integrity
   ************* All Supply Air Paths passed integrity testing
   ************* Testing Individual Return Air Path Integrity
   ************* All Return Air Paths passed integrity testing
   ************* No node connection errors were found.
   ************* Beginning Simulation
   ************* Simulation Error Summary *************
   ************* There are 28 unused schedules in input.
   ************* There are 19 unused week schedules in input.
   ************* There are 25 unused day schedules in input.
   ************* Use Output:Diagnostics,DisplayUnusedSchedules; to see them.
   *************
   ************* ===== Final Error Summary =====
   ************* The following error categories occurred.  Consider correcting or noting.
   ************* Nominally Unused Constructions
   ************* ..The nominally unused constructions warning is provided to alert you to potential conditions that can cause
   ************* ..extra time during simulation. Each construction is calculated by the algorithm indicated in the HeatBalanceAlgorithm
   ************* ..object. You may remove the constructions indicated (when you use the DisplayExtraWarnings option).
   *************
   ************* EnergyPlus Warmup Error Summary. During Warmup: 0 Warning; 0 Severe Errors.
   ************* EnergyPlus Sizing Error Summary. During Sizing: 4 Warning; 0 Severe Errors.
   ************* EnergyPlus Completed Successfully-- 6 Warning; 0 Severe Errors; Elapsed Time=00hr 00min  5.00sec
