Program Version,EnergyPlus, Version 9.5.0-de239b2e5f, YMD=2021.07.13 15:39
! <Version>, Version ID
 Version, 9.5
! <Timesteps per Hour>, #TimeSteps, Minutes per TimeStep {minutes}
 Timesteps per Hour,  4, 15
! <System Convergence Limits>, Minimum System TimeStep {minutes}, Max HVAC Iterations, Minimum Plant Iterations, Maximum Plant Iterations
 System Convergence Limits, 1, 20, 2, 8
! <Simulation Control>, Do Zone Sizing, Do System Sizing, Do Plant Sizing, Do Design Days, Do Weather Simulation, Do HVAC Sizing Simulation
 Simulation Control, Yes, Yes, No, Yes, Yes, No
! <Performance Precision Tradeoffs>, Use Coil Direct Simulation, Zone Radiant Exchange Algorithm, Override Mode, Number of Timestep In Hour, Force Euler Method, Minimum Number of Warmup Days, Force Suppress All Begin Environment Resets, Minimum System Timestep, MaxZoneTempDiff, MaxAllowedDelTemp
 Performance Precision Tradeoffs, No, ScriptF, Normal, 4, No, 1, No, 1.0, 0.300, 2.0000E-003
! <Output Reporting Tolerances>, Tolerance for Time Heating Setpoint Not Met, Tolerance for Zone Cooling Setpoint Not Met Time
 Output Reporting Tolerances, 0.200, 0.200, 
! <Site:GroundTemperature:BuildingSurface>,Jan{C},Feb{C},Mar{C},Apr{C},May{C},Jun{C},Jul{C},Aug{C},Sep{C},Oct{C},Nov{C},Dec{C}
 Site:GroundTemperature:BuildingSurface,  18.00,  18.00,  18.00,  18.00,  18.00,  18.00,  18.00,  18.00,  18.00,  18.00,  18.00,  18.00
! <Site:GroundTemperature:FCfactorMethod>,Jan{C},Feb{C},Mar{C},Apr{C},May{C},Jun{C},Jul{C},Aug{C},Sep{C},Oct{C},Nov{C},Dec{C}
 Site:GroundTemperature:FCfactorMethod,  12.34,  13.87,  16.86,  19.68,  25.02,  27.83,  28.61,  27.18,  23.89,  19.78,  15.74,  13.07
! <Site:GroundTemperature:Shallow>,Jan{C},Feb{C},Mar{C},Apr{C},May{C},Jun{C},Jul{C},Aug{C},Sep{C},Oct{C},Nov{C},Dec{C}
 Site:GroundTemperature:Shallow,  13.00,  13.00,  13.00,  13.00,  13.00,  13.00,  13.00,  13.00,  13.00,  13.00,  13.00,  13.00
! <Site:GroundTemperature:Deep>,Jan{C},Feb{C},Mar{C},Apr{C},May{C},Jun{C},Jul{C},Aug{C},Sep{C},Oct{C},Nov{C},Dec{C}
 Site:GroundTemperature:Deep,  16.00,  16.00,  16.00,  16.00,  16.00,  16.00,  16.00,  16.00,  16.00,  16.00,  16.00,  16.00
! <Site:GroundReflectance>,Jan{dimensionless},Feb{dimensionless},Mar{dimensionless},Apr{dimensionless},May{dimensionless},Jun{dimensionless},Jul{dimensionless},Aug{dimensionless},Sep{dimensionless},Oct{dimensionless},Nov{dimensionless},Dec{dimensionless}
 Site:GroundReflectance,  0.20,  0.20,  0.20,  0.20,  0.20,  0.20,  0.20,  0.20,  0.20,  0.20,  0.20,  0.20
! <Site:GroundReflectance:SnowModifier>, Normal, Daylighting {dimensionless}
 Site:GroundReflectance:SnowModifier,   1.000,   1.000
! <Site:GroundReflectance:Snow>,Jan{dimensionless},Feb{dimensionless},Mar{dimensionless},Apr{dimensionless},May{dimensionless},Jun{dimensionless},Jul{dimensionless},Aug{dimensionless},Sep{dimensionless},Oct{dimensionless},Nov{dimensionless},Dec{dimensionless}
 Site:GroundReflectance:Snow,  0.20,  0.20,  0.20,  0.20,  0.20,  0.20,  0.20,  0.20,  0.20,  0.20,  0.20,  0.20
! <Site:GroundReflectance:Snow:Daylighting>,Jan{dimensionless},Feb{dimensionless},Mar{dimensionless},Apr{dimensionless},May{dimensionless},Jun{dimensionless},Jul{dimensionless},Aug{dimensionless},Sep{dimensionless},Oct{dimensionless},Nov{dimensionless},Dec{dimensionless}
 Site:GroundReflectance:Snow:Daylighting,  0.20,  0.20,  0.20,  0.20,  0.20,  0.20,  0.20,  0.20,  0.20,  0.20,  0.20,  0.20
! <Environment:Weather Station>,Wind Sensor Height Above Ground {m},Wind Speed Profile Exponent {},Wind Speed Profile Boundary Layer Thickness {m},Air Temperature Sensor Height Above Ground {m},Wind Speed Modifier Coefficient-Internal,Temperature Modifier Coefficient-Internal
Environment:Weather Station,10.000,0.140,270.000,1.500,1.586,9.750E-003
! <Site:Location>, Location Name, Latitude {N+/S- Deg}, Longitude {E+/W- Deg},  Time Zone Number {GMT+/-}, Elevation {m},  Standard Pressure at Elevation {Pa}, Standard RhoAir at Elevation
Site:Location,Austin Mueller Municipal Ap  U TX USA TMY3 WMO#=722540,30.29,-97.74,-6.00,213.00,98792,1.1742
! <Site Water Mains Temperature Information>,Calculation Method{},Water Mains Temperature Schedule Name{},Annual Average Outdoor Air Temperature{C},Maximum Difference In Monthly Average Outdoor Air Temperatures{deltaC},Fixed Default Water Mains Temperature{C}
Site Water Mains Temperature Information,Correlation,NA,20.32,17.80,NA
! <Building Information>, Building Name,North Axis {deg},Terrain,  Loads Convergence Tolerance Value,Temperature Convergence Tolerance Value,  Solar Distribution,Maximum Number of Warmup Days,Minimum Number of Warmup Days
 Building Information,SF+CZ2A+USA_TX_Houston-Bush.Intercontinental.AP.722430+elecres+slab+IECC_2018,0.000,Suburbs,4.00000E-002,0.40000,FullExterior,25,6
! <Inside Convection Algorithm>, Algorithm {Simple | TARP | CeilingDiffuser | AdaptiveConvectionAlgorithm}
Inside Convection Algorithm,TARP
! <Outside Convection Algorithm>, Algorithm {SimpleCombined | TARP | MoWitt | DOE-2 | AdaptiveConvectionAlgorithm}
Outside Convection Algorithm,DOE-2
! <Sky Radiance Distribution>, Value {Anisotropic}
Sky Radiance Distribution,Anisotropic
! <Zone Air Solution Algorithm>, Value {ThirdOrderBackwardDifference | AnalyticalSolution | EulerMethod}
 Zone Air Solution Algorithm, ThirdOrderBackwardDifference
! <Zone Air Carbon Dioxide Balance Simulation>, Simulation {Yes/No}, Carbon Dioxide Concentration
 Zone Air Carbon Dioxide Balance Simulation, No,N/A
! <Zone Air Generic Contaminant Balance Simulation>, Simulation {Yes/No}, Generic Contaminant Concentration
 Zone Air Generic Contaminant Balance Simulation, No,N/A
! <Zone Air Mass Flow Balance Simulation>, Enforce Mass Balance, Adjust Zone Mixing and Return {AdjustMixingOnly | AdjustReturnOnly | AdjustMixingThenReturn | AdjustReturnThenMixing | None}, Adjust Zone Infiltration {AddInfiltration | AdjustInfiltration | None}, Infiltration Zones {MixingSourceZonesOnly | AllZones}
 Zone Air Mass Flow Balance Simulation, No,N/A,N/A,N/A
! <HVACSystemRootFindingAlgorithm>, Value {RegulaFalsi | Bisection | BisectionThenRegulaFalsi | RegulaFalsiThenBisection}
 HVACSystemRootFindingAlgorithm, RegulaFalsi
! <Environment:Site Atmospheric Variation>,Wind Speed Profile Exponent {},Wind Speed Profile Boundary Layer Thickness {m},Air Temperature Gradient Coefficient {K/m}
Environment:Site Atmospheric Variation,0.220,370.000,6.500000E-003
! <Material Details>,Material Name,ThermalResistance {m2-K/w},Roughness,Thickness {m},Conductivity {w/m-K},Density {kg/m3},Specific Heat {J/kg-K},Absorptance:Thermal,Absorptance:Solar,Absorptance:Visible
! <Material:Air>,Material Name,ThermalResistance {m2-K/w}
 Material Details,SHEATHING_CONSOL_LAYER,0.1351,Rough,1.2700E-002,9.402E-002,685.008,1172.332,0.9000,0.7000,0.7000
 Material Details,CEIL_CONSOL_LAYER,5.5153,Rough,0.3404,6.172E-002,41.929,776.251,0.9000,0.7000,0.7000
 Material Details,FLOOR_CONSOL_LAYER,1.9128,Rough,8.8900E-002,4.648E-002,55.074,916.931,0.9000,0.7000,0.7000
 Material Details,BSMTWALL_CONSOL_LAYER,2.3423E-005,Rough,2.5400E-004,10.844,120.801,1036.258,0.9000,0.7000,0.7000
 Material Details,CRAWLWALL_CONSOL_LAYER,2.3423E-005,Rough,2.5400E-004,10.844,120.801,1036.258,0.9000,0.7000,0.7000
 Material Details,WALL_CONSOL_LAYER,1.5339,Rough,8.8900E-002,5.796E-002,120.801,1036.258,0.9000,0.7000,0.7000
 Material Details,VERY HIGH REFLECTIVITY SURFACE,2.1097E-006,Smooth,5.0000E-004,237.000,2702.000,903.000,0.9000,5.0000E-002,5.0000E-002
 Material Details,GYPSUMBOARD-5/16IN,5.0054E-002,Rough,7.9395E-003,0.159,640.000,1129.600,0.9000,0.4000,0.1000
 Material Details,COPPERPIPE,4.7506E-005,MediumRough,1.9050E-002,401.000,2243.000,837.000,0.9000,0.6500,0.6500
 Material Details,F08 METAL SURFACE,1.7668E-005,Smooth,8.0000E-004,45.280,7824.000,500.000,0.9000,0.7000,0.7000
 Material Details,CONCRETE_4IN,7.7356E-002,Rough,0.1015,1.312,2242.800,465.200,0.9000,0.7000,0.7000
 Material Details,ASPHALT_SHINGLE,7.7448E-002,MediumRough,6.3399E-003,8.186E-002,1121.292,1255.200,0.9000,0.7500,0.7000
 Material Details,WOOD_SHINGLE,0.1115,MediumSmooth,1.2700E-002,0.114,426.091,1631.760,0.9000,0.7000,0.7000
 Material Details,SLATE_SHINGLE,8.8061E-003,MediumSmooth,1.2700E-002,1.442,1601.845,1255.200,0.9000,0.7000,0.7000
 Material Details,CEMENT_STUCCO,2.6422E-002,MediumSmooth,1.9050E-002,0.721,1865.580,878.640,0.9000,0.7000,0.7000
 Material Details,SYN_STUCCO,3.5237E-002,MediumSmooth,3.0480E-003,8.650E-002,400.000,878.640,0.9000,0.7000,0.7000
 Material Details,DRYWALL_1/2IN,7.9331E-002,MediumSmooth,1.2700E-002,0.160,800.923,1087.840,0.9000,0.7000,0.7000
 Material Details,OSB_5/8IN,0.1365,MediumSmooth,1.5875E-002,0.116,544.627,1213.360,0.9000,0.7000,0.7000
 Material Details,OSB_7/16IN,9.5550E-002,MediumSmooth,1.1113E-002,0.116,544.627,1213.360,0.9000,0.7000,0.7000
 Material Details,BLOWN_R30,5.1614,MediumRough,0.2126,4.119E-002,9.611,836.800,0.9000,0.7000,0.7000
 Material Details,BLOWN_R30_TOP,2.8489,MediumRough,0.1173,4.119E-002,9.611,836.800,0.9000,0.7000,0.7000
 Material Details,PLYWOOD_3/4IN,0.1650,Rough,1.9050E-002,0.115,544.680,674.540,0.9000,0.7000,0.7000
 Material Details,BATT_R19,7.3089,MediumRough,2.5400E-002,3.475E-003,9.611,836.800,0.9000,0.7000,0.7000
 Material Details,LUMBER_2X4,0.7709,Rough,8.9002E-002,0.115,512.640,767.580,0.9000,0.7000,0.7000
 Material Details,CARPET_N_PAD,0.4224,MediumSmooth,2.5400E-002,6.013E-002,32.037,836.800,0.9000,0.7000,0.7000
 Material Details,BATT_R13,2.2936,MediumRough,8.8900E-002,3.876E-002,9.611,836.800,0.9000,0.7000,0.7000
 Material Details,OSB_1/2IN,0.1092,MediumSmooth,1.2700E-002,0.116,544.627,1213.360,0.9000,0.7000,0.7000
 Material Details,SOIL_12IN,0.1761,Rough,0.3048,1.731,1842.300,232.600,0.9000,0.7000,0.7000
 Material Details,DOOR_CONST,0.4402,Smooth,3.1702E-002,7.201E-002,512.640,767.580,0.9000,0.7000,0.7000
 Material Details,GYP_BOARD_1/2IN,8.0130E-002,Rough,1.2710E-002,0.159,640.000,1129.600,0.9000,0.4000,0.1000
 Material Details,STD WOOD 6INCH,1.2500,MediumSmooth,0.1500,0.120,540.000,1210.000,0.9000,0.7000,0.7000
 Material Details,PIPE INSULATION,0.3830,VeryRough,1.2703E-002,3.317E-002,91.000,836.000,0.9000,0.5000,0.5000
 Material Details,MANF_WALL_AIRGAP,0.1200,Smooth,0.0000,0.000,0.000,0.000,0.9000,0.7000,0.7000
 Material Details,BLDG_PAPER_FELT,1.0567E-002,Smooth,0.0000,0.000,0.000,0.000,0.9000,0.7000,0.7000
 Material Details,R_HIGH,177.0000,MediumRough,0.0000,0.000,0.000,0.000,0.9000,0.7000,0.7000
 Material:Air,AIR_4_IN_VERT,0.1585
 Material:Air,3/4IN_AIR_SPACE,8.5130E-002
 Material:Air,3/4IN_REFLECTIVE_AIR_SPACE,0.2466
 Material Details,CLEAR ACRYLIC PLASTIC,3.3333E-003,VerySmooth,3.0000E-003,0.900,0.000,0.000,0.9000,0.0000,0.0000
 Material Details,DIFFUSING ACRYLIC PLASTIC,2.4444E-003,VerySmooth,2.2000E-003,0.900,0.000,0.000,0.9000,0.0000,0.0000
 Material Details,INT_BLIND,0.0000,Rough,0.0000,0.000,0.000,0.000,0.0000,0.0000,0.0000
 Material Details,GLASS,0.2680,VerySmooth,3.2497E-002,0.121,0.000,0.000,0.8400,0.0000,0.0000
! <Surface Geometry>,Starting Corner,Vertex Input Direction,Coordinate System,Daylight Reference Point Coordinate System,Rectangular (Simple) Surface Coordinate System
 Surface Geometry,LowerLeftCorner,Counterclockwise,RelativeCoordinateSystem,RelativeCoordinateSystem,RelativeToZoneOrigin
! <Other Side Coefficients>,Name,Combined convective/radiative film coefficient {W/m2-K},User selected Constant Temperature {C},Coefficient modifying the constant temperature term,Coefficient modifying the external dry bulb temperature term,Coefficient modifying the ground temperature term,Coefficient modifying the wind speed term {s/m},Coefficient modifying the zone air temperature term,Constant Temperature Schedule Name,Sinusoidal Variation,Period of Sinusoidal Variation,Previous Other Side Temperature Coefficient,Minimum Other Side Temperature {C},Maximum Other Side Temperature {C}
Other Side Coefficients,SURFPROPOTHSDCOEFSLABAVERAGE,N/A,N/A,1.000,0.000,0.000,0.000,0.000,SCHEDULEOSCSLABAVERAGESURFACETEMP,NO,24.000,0.000,N/A,N/A
Other Side Coefficients,SURFPROPOTHSDCOEFSLABPERIMETER,N/A,N/A,1.000,0.000,0.000,0.000,0.000,SCHEDULEOSCSLABPERIMETERTEMP,NO,24.000,0.000,N/A,N/A
Other Side Coefficients,SURFPROPOTHSDCOEFSLABCORE,N/A,N/A,1.000,0.000,0.000,0.000,0.000,SCHEDULEOSCSLABCORETEMP,NO,24.000,0.000,N/A,N/A
! <Surface Heat Transfer Algorithm>, Value {CTF - ConductionTransferFunction | EMPD - MoisturePenetrationDepthConductionTransferFunction | CondFD - ConductionFiniteDifference | HAMT - CombinedHeatAndMoistureFiniteElement} - Description,Inside Surface Max Temperature Limit{C}, Surface Convection Coefficient Lower Limit {W/m2-K}, Surface Convection Coefficient Upper Limit {W/m2-K}
Surface Heat Transfer Algorithm, CTF - ConductionTransferFunction,200,0.10,1000.0
! <Shading Summary>, Number of Fixed Detached Shades, Number of Building Detached Shades, Number of Attached Shades
 Shading Summary,0,0,4
! <Zone Summary>, Number of Zones, Number of Zone Surfaces, Number of SubSurfaces
 Zone Summary,2,26,9
! <Zone Information>,Zone Name,North Axis {deg},Origin X-Coordinate {m},Origin Y-Coordinate {m},Origin Z-Coordinate {m},Centroid X-Coordinate {m},Centroid Y-Coordinate {m},Centroid Z-Coordinate {m},Type,Zone Multiplier,Zone List Multiplier,Minimum X {m},Maximum X {m},Minimum Y {m},Maximum Y {m},Minimum Z {m},Maximum Z {m},Ceiling Height {m},Volume {m3},Zone Inside Convection Algorithm {Simple-Detailed-CeilingDiffuser-TrombeWall},Zone Outside Convection Algorithm {Simple-Detailed-Tarp-MoWitt-DOE-2-BLAST}, Floor Area {m2},Exterior Gross Wall Area {m2},Exterior Net Wall Area {m2},Exterior Window Area {m2}, Number of Surfaces, Number of SubSurfaces, Number of Shading SubSurfaces,  Part of Total Building Area
 Zone Information, LIVING_UNIT1,0.0,0.00,0.00,0.00,6.07,4.55,2.59,1,1,1,0.00,12.13,0.00,9.10,1.00E-003,5.18,3.89,482.75,TARP,DOE-2,220.82,220.10,183.37,33.01,11,9,4,Yes
 Zone Information, ATTIC_UNIT1,0.0,0.00,0.00,0.00,6.07,4.55,5.58,1,1,1,0.00,12.13,0.00,9.10,5.18,6.70,0.76,83.67,TARP,DOE-2,110.41,13.79,13.79,0.00,5,0,0,Yes
! <Zone Internal Gains Nominal>,Zone Name, Floor Area {m2},# Occupants,Area per Occupant {m2/person},Occupant per Area {person/m2},Interior Lighting {W/m2},Electric Load {W/m2},Gas Load {W/m2},Other Load {W/m2},Hot Water Eq {W/m2},Steam Equipment {W/m2},Sum Loads per Area {W/m2},Outdoor Controlled Baseboard Heat
 Zone Internal Gains Nominal, LIVING_UNIT1,220.82,3.0,73.606,1.359E-002,1.630,7.041,0.000,0.000,0.000,0.000,8.671,No
 Zone Internal Gains Nominal, ATTIC_UNIT1,110.41,0.0,N/A,0.000,0.000,0.000,0.000,0.000,0.000,0.000,0.000,No
! <People Internal Gains Nominal>,Name,Schedule Name,Zone Name,Zone Floor Area {m2},# Zone Occupants,Number of People {},People/Floor Area {person/m2},Floor Area per person {m2/person},Fraction Radiant,Fraction Convected,Sensible Fraction Calculation,Activity level,ASHRAE 55 Warnings,Carbon Dioxide Generation Rate,Nominal Minimum Number of People,Nominal Maximum Number of People
 People Internal Gains Nominal, PEOPLE_UNIT1,OCCUPANCY,LIVING_UNIT1,220.82,3.0,3.0,1.359E-002,73.606,0.000,1.000,AutoCalculate,ACTIVITY_SCH,No,3.8200E-008,1,3
! <Lights Internal Gains Nominal>,Name,Schedule Name,Zone Name,Zone Floor Area {m2},# Zone Occupants,Lighting Level {W},Lights/Floor Area {W/m2},Lights per person {W/person},Fraction Return Air,Fraction Radiant,Fraction Short Wave,Fraction Convected,Fraction Replaceable,End-Use Category,Nominal Minimum Lighting Level {W},Nominal Maximum Lighting Level {W}
 Lights Internal Gains Nominal, LIVING HARDWIRED LIGHTING1,INTERIORLIGHTINGHE,LIVING_UNIT1,220.82,3.0,254.357,1.152,84.786,0.000,0.600,0.200,0.200,0.000,General,17.487,254.357
 Lights Internal Gains Nominal, LIVING PLUG-IN LIGHTING1,INTERIORLIGHTINGHE,LIVING_UNIT1,220.82,3.0,105.654,0.478,35.218,0.000,0.600,0.200,0.200,0.000,General,7.264,105.654
! <ElectricEquipment Internal Gains Nominal>,Name,Schedule Name,Zone Name,Zone Floor Area {m2},# Zone Occupants,Equipment Level {W},Equipment/Floor Area {W/m2},Equipment per person {W/person},Fraction Latent,Fraction Radiant,Fraction Lost,Fraction Convected,End-Use SubCategory,Nominal Minimum Equipment Level {W},Nominal Maximum Equipment Level {W}
 ElectricEquipment Internal Gains Nominal, DISHWASHER1,DISHWASHER,LIVING_UNIT1,220.82,3.0,65.699,0.298,21.900,0.150,0.600,0.250,0.000,dishwasher,0.000,58.932
 ElectricEquipment Internal Gains Nominal, REFRIGERATOR1,REFRIGERATOR,LIVING_UNIT1,220.82,3.0,91.058,0.412,30.353,0.000,1.000,0.000,0.000,refrigerator,66.598,91.058
 ElectricEquipment Internal Gains Nominal, CLOTHESWASHER1,CLOTHESWASHER,LIVING_UNIT1,220.82,3.0,28.478,0.129,9.493,0.000,0.800,0.200,0.000,clotheswasher,0.000,25.545
 ElectricEquipment Internal Gains Nominal, ELECTRIC_DRYER1,CLOTHESDRYER,LIVING_UNIT1,220.82,3.0,213.065,0.965,71.022,5.000E-002,0.150,0.800,0.000,electric_dryer,0.000,213.065
 ElectricEquipment Internal Gains Nominal, ELECTRIC_RANGE1,COOKINGRANGE,LIVING_UNIT1,220.82,3.0,248.154,1.124,82.718,0.300,0.400,0.300,0.000,electric_range,5.843,248.154
 ElectricEquipment Internal Gains Nominal, TELEVISION1,INTERIORLIGHTING,LIVING_UNIT1,220.82,3.0,0.000,0.000,0.000,0.000,1.000,0.000,0.000,television,0.000,0.000
 ElectricEquipment Internal Gains Nominal, ELECTRIC_MELS1,MISCPLUGLOAD,LIVING_UNIT1,220.82,3.0,567.464,2.570,189.155,6.000E-002,0.690,0.250,0.000,electric_mels,293.392,567.464
 ElectricEquipment Internal Gains Nominal, IECC_ADJ1,MISCPLUGLOAD,LIVING_UNIT1,220.82,3.0,340.847,1.544,113.616,6.244E-002,0.412,0.251,0.275,IECC_adj,176.226,340.847
! <Construction CTF>,Construction Name,Index,#Layers,#CTFs,Time Step {hours},ThermalConductance {w/m2-K},OuterThermalAbsorptance,InnerThermalAbsorptance,OuterSolarAbsorptance,InnerSolarAbsorptance,Roughness
! <Material CTF Summary>,Material Name,Thickness {m},Conductivity {w/m-K},Density {kg/m3},Specific Heat {J/kg-K},ThermalResistance {m2-K/w}
! <Material:Air>,Material Name,ThermalResistance {m2-K/w}
! <CTF>,Time,Outside,Cross,Inside,Flux (except final one)
 Construction CTF,EXTERIOR WALL,   1,   5,   9,   0.250,     0.5322    ,   0.900,   0.900,   0.700,   0.700,MediumSmooth
 Material CTF Summary,SYN_STUCCO,  0.0030,         0.086,    400.000,      878.640,  0.3524E-01
 Material CTF Summary,SHEATHING_CONSOL_LAYER,  0.0127,         0.094,    685.008,     1172.332,  0.1351    
 Material CTF Summary,OSB_7/16IN,  0.0111,         0.116,    544.627,     1213.360,  0.9555E-01
 Material CTF Summary,WALL_CONSOL_LAYER,  0.0889,         0.058,    120.801,     1036.258,   1.534    
 Material CTF Summary,DRYWALL_1/2IN,  0.0127,         0.160,    800.923,     1087.840,  0.7933E-01
 CTF,   9,     -0.88098939E-11,     -0.72251346E-13,     -0.13271358E-10,      0.28598069E-15
 CTF,   8,      0.14374220E-07,      0.20238629E-10,      0.21926090E-07,     -0.67343297E-11
 CTF,   7,     -0.58077213E-05,      0.35591046E-07,     -0.89774604E-05,      0.10566356E-07
 CTF,   6,      0.74491839E-03,      0.93868972E-05,      0.11902929E-02,     -0.37451035E-05
 CTF,   5,     -0.34540924E-01,      0.50329974E-03,     -0.61333705E-01,      0.36590870E-03
 CTF,   4,      0.60239493    ,      0.63479934E-02,       1.2431385    ,     -0.12762296E-01
 CTF,   3,      -4.3929275    ,      0.19623999E-01,      -9.0119225    ,      0.16852360    
 CTF,   2,       14.139331    ,      0.13576563E-01,       25.431552    ,     -0.84992095    
 CTF,   1,      -19.169701    ,      0.14168571E-02,      -29.975217    ,       1.6158502    
 CTF,   0,       8.8961855    ,      0.33695138E-05,       12.414082    
 Construction CTF,INTERIORFURNISHINGS,   2,   1,   7,   0.250,     0.8000    ,   0.900,   0.900,   0.700,   0.700,MediumSmooth
 Material CTF Summary,STD WOOD 6INCH,  0.1500,         0.120,    540.000,     1210.000,   1.250    
 CTF,   7,     -0.19879948E-01,      0.18371110E-08,     -0.19879948E-01,      0.25920384E-02
 CTF,   6,      0.37833182    ,      0.93111392E-06,      0.37833182    ,     -0.50805208E-01
 CTF,   5,      -2.8822885    ,      0.33090332E-04,      -2.8822885    ,      0.40100636    
 CTF,   4,       11.391948    ,      0.23980383E-03,       11.391948    ,      -1.6521297    
 CTF,   3,      -25.286828    ,      0.46344169E-03,      -25.286828    ,       3.8446603    
 CTF,   2,       31.657742    ,      0.23933549E-03,       31.657742    ,      -5.0707043    
 CTF,   1,      -20.807361    ,      0.25331892E-04,      -20.807361    ,       3.5241279    
 CTF,   0,       5.5693388    ,      0.18852057E-06,       5.5693388    
 Construction CTF,INTERIOR FLOOR,   5,   2,   3,   0.250,      1.702    ,   0.900,   0.900,   0.700,   0.700,Rough
 Material CTF Summary,PLYWOOD_3/4IN,  0.0191,         0.115,    544.680,      674.540,  0.1650    
 Material CTF Summary,CARPET_N_PAD,  0.0254,         0.060,     32.037,      836.800,  0.4224    
 CTF,   3,     -0.21260425E-07,      0.49822955E-08,     -0.13883007E-07,      0.11425730E-18
 CTF,   2,      0.11625382    ,      0.10663279E-01,      0.24913590E-01,     -0.65967067E-07
 CTF,   1,      -5.6903370    ,      0.76350664    ,     -0.70509535    ,      0.99684103E-01
 CTF,   0,       7.1067848    ,      0.75853168    ,       2.2128834    
 Construction CTF,INTERIOR CEILING,   6,   2,   8,   0.250,     0.1787    ,   0.900,   0.900,   0.700,   0.700,Rough
 Material CTF Summary,CEIL_CONSOL_LAYER,  0.3404,         0.062,     41.929,      776.251,   5.515    
 Material CTF Summary,DRYWALL_1/2IN,  0.0127,         0.160,    800.923,     1087.840,  0.7933E-01
 CTF,   8,     -0.11816994E-16,     -0.90043484E-15,      0.10966544E-10,     -0.23522537E-17
 CTF,   7,     -0.28233005E-10,      0.45961411E-12,     -0.14801489E-02,      0.21071611E-10
 CTF,   6,      0.97574838E-03,      0.62788551E-07,      0.10795095    ,     -0.72824691E-03
 CTF,   5,     -0.25553124E-01,      0.12881995E-04,      -1.6202009    ,      0.19588794E-01
 CTF,   4,      0.24502974    ,      0.27280109E-03,       10.111527    ,     -0.19523083    
 CTF,   3,      -1.0924881    ,      0.11744559E-02,      -31.207332    ,      0.91817979    
 CTF,   2,       2.3855350    ,      0.11646173E-02,       49.874879    ,      -2.1491714    
 CTF,   1,      -2.4426830    ,      0.21734485E-03,      -39.396503    ,       2.3914456    
 CTF,   0,      0.93202866    ,      0.27547895E-05,       12.134003    
 Construction CTF,ATTIC FLOOR,   7,   2,   8,   0.250,     0.1787    ,   0.900,   0.900,   0.700,   0.700,MediumSmooth
 Material CTF Summary,DRYWALL_1/2IN,  0.0127,         0.160,    800.923,     1087.840,  0.7933E-01
 Material CTF Summary,CEIL_CONSOL_LAYER,  0.3404,         0.062,     41.929,      776.251,   5.515    
 CTF,   8,      0.10966544E-10,     -0.90043484E-15,     -0.11816994E-16,     -0.23522537E-17
 CTF,   7,     -0.14801489E-02,      0.45961411E-12,     -0.28233005E-10,      0.21071611E-10
 CTF,   6,      0.10795095    ,      0.62788551E-07,      0.97574838E-03,     -0.72824691E-03
 CTF,   5,      -1.6202009    ,      0.12881995E-04,     -0.25553124E-01,      0.19588794E-01
 CTF,   4,       10.111527    ,      0.27280109E-03,      0.24502974    ,     -0.19523083    
 CTF,   3,      -31.207332    ,      0.11744559E-02,      -1.0924881    ,      0.91817979    
 CTF,   2,       49.874879    ,      0.11646173E-02,       2.3855350    ,      -2.1491714    
 CTF,   1,      -39.396503    ,      0.21734485E-03,      -2.4426830    ,       2.3914456    
 CTF,   0,       12.134003    ,      0.27547895E-05,      0.93202866    
 Construction CTF,EXTERIOR ROOF,  11,   2,   3,   0.250,      5.358    ,   0.900,   0.900,   0.750,   0.700,MediumRough
 Material CTF Summary,ASPHALT_SHINGLE,  0.0063,         0.082,   1121.292,     1255.200,  0.7745E-01
 Material CTF Summary,OSB_1/2IN,  0.0127,         0.116,    544.627,     1213.360,  0.1092    
 CTF,   3,     -0.29555724E-05,      0.78471552E-06,     -0.19777018E-05,      0.68642314E-15
 CTF,   2,      0.15293305    ,      0.50483289E-01,      0.12822325    ,     -0.22743170E-05
 CTF,   1,      -7.5337739    ,       2.6090217    ,      -5.6395048    ,      0.62817353E-01
 CTF,   0,       12.401978    ,       2.3616280    ,       10.532417    
 Construction CTF,EXTERIOR DOOR,  14,   1,   5,   0.250,      2.271    ,   0.900,   0.900,   0.700,   0.700,Smooth
 Material CTF Summary,DOOR_CONST,  0.0317,         0.072,    512.640,      767.580,  0.4402    
 CTF,   5,     -0.37152786E-15,      0.35593982E-15,     -0.37150719E-15,     -0.34690068E-20
 CTF,   4,      0.12378952E-07,      0.96010384E-08,      0.12378952E-07,     -0.88138091E-13
 CTF,   3,     -0.64219729E-03,      0.41798625E-03,     -0.64219729E-03,      0.29852614E-06
 CTF,   2,      0.29525573    ,      0.13271291    ,      0.29525573    ,     -0.23139616E-02
 CTF,   1,      -4.4417260    ,       1.1371711    ,      -4.4417260    ,      0.24376308    
 CTF,   0,       5.8701146    ,      0.45270019    ,       5.8701146    
 Construction CTF,GABLE_END,  16,   5,   5,   0.250,      2.431    ,   0.900,   0.900,   0.700,   0.700,MediumSmooth
 Material CTF Summary,CEMENT_STUCCO,  0.0191,         0.721,   1865.580,      878.640,  0.2642E-01
 Material CTF Summary,BLDG_PAPER_FELT,  0.0000,         0.000,      0.000,        0.000,  0.1057E-01
 Material CTF Summary,OSB_5/8IN,  0.0159,         0.116,    544.627,     1213.360,  0.1365    
 Material:Air,AIR_4_IN_VERT,  0.1585    
 Material CTF Summary,DRYWALL_1/2IN,  0.0127,         0.160,    800.923,     1087.840,  0.7933E-01
 CTF,   5,     -0.52254053E-08,      0.11833494E-09,     -0.19746461E-08,      0.20376637E-17
 CTF,   4,      0.13198703E-02,      0.28796027E-04,      0.41856668E-03,     -0.11610988E-08
 CTF,   3,     -0.25208402    ,      0.19322245E-01,     -0.85493636E-01,      0.23906158E-03
 CTF,   2,       7.8533107    ,      0.48110426    ,       2.9016275    ,     -0.20267960E-01
 CTF,   1,      -41.398393    ,      0.98160798    ,      -13.501343    ,      0.36527180    
 CTF,   0,       35.387695    ,      0.10978549    ,       12.276639    
! <WindowConstruction>,Construction Name,Index,#Layers,Roughness,Conductance {W/m2-K},SHGC,Solar Transmittance at Normal Incidence,Visible Transmittance at Normal Incidence
! <WindowMaterial:Glazing>, Material Name, Optical Data Type, Spectral Data Set Name, Thickness {m}, Solar Transmittance,Front Solar Reflectance, Back Solar Reflectance, Visible Transmittance, Front Visible Reflectance,Back Visible Reflectance,Infrared Transmittance, Front Thermal Emissivity, Back Thermal Emissivity,Conductivity {W/m-K},Dirt Factor,Solar Diffusing
! <WindowMaterial:Blind>,Material Name,Slat Width {m},Slat Separation {m},Slat Thickness {m},Slat Angle {deg},Slat Beam Solar Transmittance,Slat Beam Solar Front Reflectance,Blind To Glass Distance {m}
 WindowConstruction,EXTERIOR WINDOW,12,1,VerySmooth,2.273,0.217,0.129,0.883
 WindowMaterial:Glazing,GLASS,SpectralAverage,,3.24974E-002,0.12813,0.65606,0.65606,0.88000,0.11900,0.11900,0.00000,0.84000,0.84000,0.12126,1.00000,No
 WindowConstruction,INTERIOR WINDOW,13,1,VerySmooth,2.273,0.217,0.129,0.883
 WindowMaterial:Glazing,GLASS,SpectralAverage,,3.24974E-002,0.12813,0.65606,0.65606,0.88000,0.11900,0.11900,0.00000,0.84000,0.84000,0.12126,1.00000,No
 WindowConstruction,WINDOW_W_BLINDS,18,2,VerySmooth,2.273,0.207,2.538E-002,0.133
 WindowMaterial:Glazing,GLASS,SpectralAverage,,3.24974E-002,0.12813,0.65606,0.65606,0.88000,0.11900,0.11900,0.00000,0.84000,0.84000,0.12126,1.00000,No
 WindowMaterial:Blind,INT_BLIND,2.5000E-002,1.8750E-002,1.0000E-003,45.000,0.000,0.500,5.000E-002
 WindowConstruction,TDD DOME,22,1,VerySmooth,6.082,0.929,0.920,0.920
 WindowMaterial:Glazing,CLEAR ACRYLIC PLASTIC,SpectralAverage,,3.00000E-003,0.92000,5.00000E-002,5.00000E-002,0.92000,5.00000E-002,5.00000E-002,0.00000,0.90000,0.90000,0.90000,1.00000,No
 WindowConstruction,TDD DIFFUSER,23,1,VerySmooth,6.115,0.906,0.900,0.900
 WindowMaterial:Glazing,DIFFUSING ACRYLIC PLASTIC,SpectralAverage,,2.20000E-003,0.90000,8.00000E-002,8.00000E-002,0.90000,8.00000E-002,8.00000E-002,0.00000,0.90000,0.90000,0.90000,1.00000,No
! <Shadowing/Sun Position Calculations Annual Simulations>, Shading Calculation Method, Shading Calculation Update Frequency Method, Shading Calculation Update Frequency {days}, Maximum Figures in Shadow Overlap Calculations {}, Polygon Clipping Algorithm, Pixel Counting Resolution, Sky Diffuse Modeling Algorithm, Output External Shading Calculation Results, Disable Self-Shading Within Shading Zone Groups, Disable Self-Shading From Shading Zone Groups to Other Zones
Shadowing/Sun Position Calculations Annual Simulations,PolygonClipping,Periodic,20,15000,SutherlandHodgman,512,SimpleSkyDiffuseModeling,No,No,No
! <Water Heater Information>,Type,Name,Volume {m3},Maximum Capacity {W},Standard Rated Recovery Efficiency, Standard Rated Energy Factor
! <ZoneInfiltration Airflow Stats Nominal>,Name,Schedule Name,Zone Name, Zone Floor Area {m2}, # Zone Occupants,Design Volume Flow Rate {m3/s},Volume Flow Rate/Floor Area {m3/s-m2},Volume Flow Rate/Exterior Surface Area {m3/s-m2},ACH - Air Changes per Hour,Equation A - Constant Term Coefficient {},Equation B - Temperature Term Coefficient {1/C},Equation C - Velocity Term Coefficient {s/m}, Equation D - Velocity Squared Term Coefficient {s2/m2}
 ZoneInfiltration Airflow Stats Nominal, LIVING_SHERMANGRIMSRUD_UNIT1,ALWAYS_AVAIL,LIVING_UNIT1,220.82,3.0,0.000,0.000,0.000,0.000,0.000,0.000,0.000,0.000
 ZoneInfiltration Airflow Stats Nominal, ATTICVENT_UNIT1,ALWAYS_AVAIL,ATTIC_UNIT1,110.41,0.0,0.000,0.000,0.000,0.000,0.000,0.000,0.000,0.000
! <ZoneVentilation Airflow Stats Nominal>,Name,Schedule Name,Zone Name, Zone Floor Area {m2}, # Zone Occupants,Design Volume Flow Rate {m3/s},Volume Flow Rate/Floor Area {m3/s-m2},Volume Flow Rate/person Area {m3/s-person},ACH - Air Changes per Hour,Fan Type {Exhaust;Intake;Natural},Fan Pressure Rise {Pa},Fan Efficiency {},Equation A - Constant Term Coefficient {},Equation B - Temperature Term Coefficient {1/C},Equation C - Velocity Term Coefficient {s/m}, Equation D - Velocity Squared Term Coefficient {s2/m2},Minimum Indoor Temperature{C}/Schedule,Maximum Indoor Temperature{C}/Schedule,Delta Temperature{C}/Schedule,Minimum Outdoor Temperature{C}/Schedule,Maximum Outdoor Temperature{C}/Schedule,Maximum WindSpeed{m/s}
 ZoneVentilation Airflow Stats Nominal, VENTILATION_UNIT1,ALWAYS_AVAIL,LIVING_UNIT1,220.82,3.0,2.832E-002,1.282E-004,9.439E-003,0.211,Exhaust,0.000,1.0,1.000,0.000,0.000,0.000,-100.00,100.00,-100.00,-100.00,100.00,40.00
! <AirFlow Model>, Simple
 AirFlow Model, Simple
! <RoomAir Model>, Zone Name, Mixing/Mundt/UCSDDV/UCSDCV/UCSDUFI/UCSDUFE/User Defined
RoomAir Model,LIVING_UNIT1,Mixing/Well-Stirred
RoomAir Model,ATTIC_UNIT1,Mixing/Well-Stirred
! <AirflowNetwork Model:Control>, No Multizone or Distribution/Multizone with Distribution/Multizone without Distribution/Multizone with Distribution only during Fan Operation
AirflowNetwork Model:Control,NoMultizoneOrDistribution
! <Zone Volume Capacitance Multiplier>, Sensible Heat Capacity Multiplier, Moisture Capacity Multiplier, Carbon Dioxide Capacity Multiplier, Generic Contaminant Capacity Multiplier
Zone Volume Capacitance Multiplier,   1.000 ,   1.000,   1.000,   1.000
! <Load Timesteps in Zone Design Calculation Averaging Window>, Value
 Load Timesteps in Zone Design Calculation Averaging Window,    4
! <Heating Sizing Factor Information>, Sizing Factor ID, Value
 Heating Sizing Factor Information, Global,   1.0000    
! <Cooling Sizing Factor Information>, Sizing Factor ID, Value
 Cooling Sizing Factor Information, Global,   1.0000    
! <Zone Sizing Information>, Zone Name, Load Type, Calc Des Load {W}, User Des Load {W}, Calc Des Air Flow Rate {m3/s}, User Des Air Flow Rate {m3/s}, Design Day Name, Date/Time of Peak, Temperature at Peak {C}, Humidity Ratio at Peak {kgWater/kgDryAir}, Floor Area {m2}, # Occupants, Calc Outdoor Air Flow Rate {m3/s}, Calc DOAS Heat Addition Rate {W}
 Zone Sizing Information, LIVING_UNIT1, Cooling, 8517.51082, 8517.51082, 0.66912, 0.66912, HOUSTON BUSH INTERCONTINENTAL ANN CLG .4% CONDNS DB=>MWB, 7/21 17:00:00, 34.58600, 1.52205E-002, 220.81784, 3.00000, 2.83168E-002, 0.00000
 Zone Sizing Information, LIVING_UNIT1, Heating, 7600.71275, 7600.71275, 0.22030, 0.22030, HOUSTON BUSH INTERCONTINENTAL ANN HTG 99.6% CONDNS DB, 1/21 07:00:00, -1.60000, 3.31476E-003, 220.81784, 3.00000, 2.83168E-002, 0.00000
! <System Sizing Information>, System Name, Load Type, Peak Load Kind, User Design Capacity, Calc Des Air Flow Rate [m3/s], User Des Air Flow Rate [m3/s], Design Day Name, Date/Time of Peak
 System Sizing Information, CENTRAL SYSTEM_UNIT1, Cooling, Sensible, 8630.09, 0.66912, 0.66912, HOUSTON BUSH INTERCONTINENTAL ANN CLG .4% CONDNS DB=>MWB, 7/21 05:00:00
 System Sizing Information, CENTRAL SYSTEM_UNIT1, Heating, Sensible, 8183.43, 0.22030, 0.22030, HOUSTON BUSH INTERCONTINENTAL ANN HTG 99.6% CONDNS DB, 1/21 07:00:00
! <Component Sizing Information>, Component Type, Component Name, Input Field Description, Value
 Component Sizing Information, AirTerminal:SingleDuct:ConstantVolume:NoReheat, ZONEDIRECTAIR_UNIT1, Design Size Maximum Air Flow Rate [m3/s], 0.66912
 Component Sizing Information, AirLoopHVAC, CENTRAL SYSTEM_UNIT1, Sum of Air Terminal Maximum Heating Flow Rates [m3/s], 0.66912
 Component Sizing Information, AirLoopHVAC, CENTRAL SYSTEM_UNIT1, Sum of Air Terminal Minimum Heating Flow Rates [m3/s], 0.66912
 Component Sizing Information, AirLoopHVAC, CENTRAL SYSTEM_UNIT1, Sum of Air Terminal Maximum Flow Rates [m3/s], 0.66912
 Component Sizing Information, AirLoopHVAC, CENTRAL SYSTEM_UNIT1, Adjusted Heating Design Air Flow Rate [m3/s], 0.66912
 Component Sizing Information, AirLoopHVAC, CENTRAL SYSTEM_UNIT1, Adjusted Cooling Design Air Flow Rate [m3/s], 0.66912
 Component Sizing Information, AirLoopHVAC, CENTRAL SYSTEM_UNIT1, Adjusted Main Design Air Flow Rate [m3/s], 0.66912
 Component Sizing Information, AirLoopHVAC, CENTRAL SYSTEM_UNIT1, User Heating Air Flow Ratio [], 1.00000
 Component Sizing Information, AirLoopHVAC, CENTRAL SYSTEM_UNIT1, Calculated Heating Air Flow Ratio [], 1.00000
 Component Sizing Information, AirLoopHVAC, CENTRAL SYSTEM_UNIT1, Design Supply Air Flow Rate [m3/s], 0.66912
 Component Sizing Information, Coil:Cooling:DX:SingleSpeed, DX COOLING COIL_UNIT1, Design Size Rated Air Flow Rate [m3/s], 0.66912
 Component Sizing Information, Coil:Cooling:DX:SingleSpeed, DX COOLING COIL_UNIT1, Design Size Gross Rated Total Cooling Capacity [W], 12045.04622
 Component Sizing Information, Coil:Cooling:DX:SingleSpeed, DX COOLING COIL_UNIT1, Design Size Gross Rated Sensible Heat Ratio, 0.80009
! <DX Cooling Coil Standard Rating Information>, Component Type, Component Name, Standard Rating (Net) Cooling Capacity {W}, Standard Rated Net COP {W/W}, EER {Btu/W-h}, SEER User {Btu/W-h}, SEER Standard {Btu/W-h}, IEER {Btu/W-h}
 DX Cooling Coil Standard Rating Information, Coil:Cooling:DX:SingleSpeed, DX COOLING COIL_UNIT1, 11525.9, 3.31, 11.31, 11.98, 11.52, 11.57
 Component Sizing Information, AirLoopHVAC:UnitaryHeatCool, ACANDF_UNIT1, Supply Air Flow Rate [m3/s], 0.66912
 Component Sizing Information, AirLoopHVAC:UnitaryHeatCool, ACANDF_UNIT1, Supply Air Flow Rate During Heating Operation [m3/s], 0.66912
 Component Sizing Information, AirLoopHVAC:UnitaryHeatCool, ACANDF_UNIT1, Supply Air Flow Rate During Cooling Operation [m3/s], 0.66912
 Component Sizing Information, AirLoopHVAC:UnitaryHeatCool, ACANDF_UNIT1, Nominal Heating Capacity [W], 8183.43031
 Component Sizing Information, AirLoopHVAC:UnitaryHeatCool, ACANDF_UNIT1, Nominal Cooling Capacity [W], 12045.04622
 Component Sizing Information, AirLoopHVAC:UnitaryHeatCool, ACANDF_UNIT1, Fraction of Supply Air Flow That Goes Through the Controlling Zone, 1.00000
 Component Sizing Information, Fan:OnOff, SUPPLY FAN_UNIT1, Design Size Maximum Flow Rate [m3/s], 0.66912
 Component Sizing Information, Coil:Heating:Electric, MAIN ELECTRIC HEATING COIL_UNIT1, Design Size Nominal Capacity [W], 8183.43031
 Component Sizing Information, PlantLoop, DHW LOOP_UNIT1, Maximum Loop Flow Rate [m3/s], 4.93808E-004
 Component Sizing Information, PlantLoop, DHW LOOP_UNIT1, Plant Loop Volume [m3], 5.92569E-002
 Component Sizing Information, Pump:VariableSpeed, MAINS PRESSURE_UNIT1, Design Flow Rate [m3/s], 4.93808E-004
 Component Sizing Information, WaterHeater:Mixed, WATER HEATER_UNIT1, Maximum Heater Capacity [W], 5500.00000
 Component Sizing Information, WaterHeater:Mixed, WATER HEATER_UNIT1, Use Side Design Flow Rate [m3/s], 4.93808E-004
Water Heater Information,WaterHeater:Mixed,WATER HEATER_UNIT1,0.1968,5500.0,1.050,0.9464
! <Environment>,Environment Name,Environment Type, Start Date, End Date, Start DayOfWeek, Duration {#days}, Source:Start DayOfWeek,  Use Daylight Saving, Use Holidays, Apply Weekend Holiday Rule,  Use Rain Values, Use Snow Values, Sky Temperature Model
! <Environment:Special Days>, Special Day Name, Special Day Type, Source, Start Date, Duration {#days}
! <Environment:Daylight Saving>, Daylight Saving Indicator, Source, Start Date, End Date
! <Environment:WarmupDays>, NumberofWarmupDays
Environment,HOUSTON BUSH INTERCONTINENTAL ANN HTG 99.6% CONDNS DB,SizingPeriod:DesignDay,01/21,01/21,WinterDesignDay,1,N/A,N/A,N/A,N/A,N/A,N/A,Clark and Allen
Environment:Daylight Saving,No,SizingPeriod:DesignDay
! <Environment:Design Day Data>, Max Dry-Bulb Temp {C}, Temp Range {dC}, Temp Range Ind Type, Hum Ind Type, Hum Ind Value at Max Temp, Hum Ind Units, Pressure {Pa}, Wind Direction {deg CW from N}, Wind Speed {m/s}, Clearness, Rain, Snow
! <Environment:Design Day Misc>,DayOfYear,ASHRAE A Coeff,ASHRAE B Coeff,ASHRAE C Coeff,Solar Constant-Annual Variation,Eq of Time {minutes}, Solar Declination Angle {deg}, Solar Model
Environment:Design Day Data,-1.60,0.00,DefaultMultipliers,Wetbulb,-1.60,{C},100977,0,2.8,0.00,No,No
Environment:Design Day Misc, 21,1229.0,0.1415,5.7310E-002,1.0,-11.15,-20.1,ASHRAEClearSky
Environment:WarmupDays,  6
! <Tabular Report>,Style,Unit Conversion
Tabular Report,Commaandhtml,commaandhtml
! <Warmup Convergence Information>,Zone Name,Environment Type/Name,Average Warmup Temperature Difference {deltaC},Std Dev Warmup Temperature Difference {deltaC},Max Temperature Pass/Fail Convergence,Min Temperature Pass/Fail Convergence,Average Warmup Load Difference {W},Std Dev Warmup Load Difference {W},Heating Load Pass/Fail Convergence,Cooling Load Pass/Fail Convergence
 Warmup Convergence Information,LIVING_UNIT1,SizingPeriod: HOUSTON BUSH INTERCONTINENTAL ANN HTG 99.6% CONDNS DB,0.4571965344,0.7332245702,Pass,Pass,0.2385710359,0.4318333293,Pass,Pass
 Warmup Convergence Information,ATTIC_UNIT1,SizingPeriod: HOUSTON BUSH INTERCONTINENTAL ANN HTG 99.6% CONDNS DB,1.0154194239E-003,8.3137724739E-004,Pass,Pass,0.0000000000,0.0000000000,Pass,Pass
Environment,HOUSTON BUSH INTERCONTINENTAL ANN CLG .4% CONDNS DB=>MWB,SizingPeriod:DesignDay,07/21,07/21,SummerDesignDay,1,N/A,N/A,N/A,N/A,N/A,N/A,Clark and Allen
Environment:Daylight Saving,No,SizingPeriod:DesignDay
Environment:Design Day Data,36.00,10.10,DefaultMultipliers,Wetbulb,24.80,{C},100977,170,3.5,0.00,No,No
Environment:Design Day Misc,202,1084.4,0.2082,0.1365,1.0,-6.23,20.6,ASHRAETau
Environment:WarmupDays,  6
 Warmup Convergence Information,LIVING_UNIT1,SizingPeriod: HOUSTON BUSH INTERCONTINENTAL ANN CLG .4% CONDNS DB=>MWB,0.4910082562,0.7769645884,Pass,Pass,0.3379110598,0.5864136423,Pass,Pass
 Warmup Convergence Information,ATTIC_UNIT1,SizingPeriod: HOUSTON BUSH INTERCONTINENTAL ANN CLG .4% CONDNS DB=>MWB,0.8093704961,0.6796942111,Pass,Pass,0.0000000000,0.0000000000,Pass,Pass
Environment,ANNUAL,WeatherFileRunPeriod,01/01/2017,12/31/2017,Sunday,365,Use RunPeriod Specified Day,Yes,Yes,No,Yes,Yes,Clark and Allen
Environment:Daylight Saving,No,
Environment:WarmupDays,  6
 Warmup Convergence Information,LIVING_UNIT1,RunPeriod: ANNUAL,0.3500668886,0.5265265855,Pass,Pass,0.1117875153,0.2350727614,Pass,Pass
 Warmup Convergence Information,ATTIC_UNIT1,RunPeriod: ANNUAL,0.6858266724,0.4937102003,Pass,Pass,0.0000000000,0.0000000000,Pass,Pass
! <Program Control Information:Threads/Parallel Sims>, Threading Supported,Maximum Number of Threads, Env Set Threads (OMP_NUM_THREADS), EP Env Set Threads (EP_OMP_NUM_THREADS), IDF Set Threads, Number of Threads Used (Interior Radiant Exchange), Number Nominal Surfaces, Number Parallel Sims
Program Control:Threads/Parallel Sims, No,1, N/A, N/A, N/A, N/A, N/A, N/A
End of Data
